
#======================================================================
# CRYSTAL DATA
#----------------------------------------------------------------------
data_VESTA_phase_1

_chemical_name_common                  ' Atoms. Timestep: 0'
_cell_length_a                         47.180653
_cell_length_b                         47.180653
_cell_length_c                         47.180653
_cell_angle_alpha                      90.000000
_cell_angle_beta                       90.000000
_cell_angle_gamma                      90.000000
_cell_volume                           1.000000
_space_group_name_H-M_alt              'P 1'
_space_group_IT_number                 1

loop_
_space_group_symop_operation_xyz
   'x, y, z'

loop_
   _atom_site_label
   _atom_site_occupancy
   _atom_site_fract_x
   _atom_site_fract_y
   _atom_site_fract_z
   _atom_site_adp_type
   _atom_site_U_iso_or_equiv
   _atom_site_type_symbol
   C1         1.0     0.794231     0.282464     0.203774    Uiso  ? C
   C2         1.0     0.761207     0.279135     0.201837    Uiso  ? C
   C3         1.0     0.743111     0.299225     0.209685    Uiso  ? C
   H1         1.0     0.749058     0.320675     0.209556    Uiso  ? H
   C4         1.0     0.714622     0.292863     0.216885    Uiso  ? C
   H2         1.0     0.700682     0.308570     0.224187    Uiso  ? H
   C5         1.0     0.705383     0.265362     0.216661    Uiso  ? C
   H3         1.0     0.685049     0.259184     0.226353    Uiso  ? H
   C6         1.0     0.722857     0.244921     0.206184    Uiso  ? C
   C7         1.0     0.751566     0.250203     0.198628    Uiso  ? C
   H4         1.0     0.765567     0.235820     0.189141    Uiso  ? H
   C8         1.0     0.711943     0.216558     0.201389    Uiso  ? C
   C9         1.0     0.851609     0.256521     0.262927    Uiso  ? C
   C10        1.0     0.855481     0.238927     0.287866    Uiso  ? C
   C11        1.0     0.855085     0.251329     0.314961    Uiso  ? C
   H5         1.0     0.849724     0.273153     0.319084    Uiso  ? H
   C12        1.0     0.858912     0.235146     0.339881    Uiso  ? C
   H6         1.0     0.860595     0.244063     0.361139    Uiso  ? H
   C13        1.0     0.862213     0.206139     0.337443    Uiso  ? C
   H7         1.0     0.863842     0.193288     0.356152    Uiso  ? H
   C14        1.0     0.863128     0.192985     0.309688    Uiso  ? C
   C15        1.0     0.858946     0.209102     0.284922    Uiso  ? C
   H8         1.0     0.858512     0.200155     0.263654    Uiso  ? H
   C16        1.0     0.863637     0.160953     0.306630    Uiso  ? C
   C17        1.0     0.107275     0.289885     0.231743    Uiso  ? C
   C18        1.0     0.136894     0.289438     0.241052    Uiso  ? C
   C19        1.0     0.146506     0.308939     0.262569    Uiso  ? C
   H9         1.0     0.132396     0.323812     0.271013    Uiso  ? H
   C20        1.0     0.173466     0.306639     0.273868    Uiso  ? C
   H10        1.0     0.181889     0.319901     0.290464    Uiso  ? H
   C21        1.0     0.191707     0.284346     0.265297    Uiso  ? C
   H11        1.0     0.213534     0.284537     0.271651    Uiso  ? H
   C22        1.0     0.182614     0.264618     0.243941    Uiso  ? C
   C23        1.0     0.155317     0.267927     0.231044    Uiso  ? C
   H12        1.0     0.149083     0.255356     0.214217    Uiso  ? H
   C24        1.0     0.201507     0.242730     0.231164    Uiso  ? C
   C25        1.0     0.872268     0.320978     0.181095    Uiso  ? C
   C26        1.0     0.893094     0.336565     0.162168    Uiso  ? C
   C27        1.0     0.112582     0.360806     0.170907    Uiso  ? C
   H13        1.0     0.109558     0.371092     0.191373    Uiso  ? H
   C28        1.0     0.135345     0.371018     0.155500    Uiso  ? C
   H14        1.0     0.147483     0.390191     0.162696    Uiso  ? H
   C29        1.0     0.142097     0.359475     0.127999    Uiso  ? C
   H15        1.0     0.158146     0.368879     0.114400    Uiso  ? H
   C30        1.0     0.126188     0.336474     0.118595    Uiso  ? C
   C31        1.0     0.105861     0.325488     0.136782    Uiso  ? C
   H16        1.0     0.888666     0.306940     0.129926    Uiso  ? H
   C32        1.0     0.131167     0.320240     0.891717    Uiso  ? C
   C33        1.0     0.682427     0.122144     0.164224    Uiso  ? C
   C34        1.0     0.668587     0.894124     0.147995    Uiso  ? C
   C35        1.0     0.639876     0.885065     0.151873    Uiso  ? C
   H17        1.0     0.626188     0.892257     0.168787    Uiso  ? H
   C36        1.0     0.627375     0.862857     0.134975    Uiso  ? C
   H18        1.0     0.607865     0.852537     0.142509    Uiso  ? H
   C37        1.0     0.644880     0.849536     0.115649    Uiso  ? C
   H19        1.0     0.637928     0.829744     0.107162    Uiso  ? H
   C38        1.0     0.672673     0.858313     0.110147    Uiso  ? C
   C39        1.0     0.685625     0.879141     0.127830    Uiso  ? C
   H20        1.0     0.708501     0.882284     0.127539    Uiso  ? H
   C40        1.0     0.690589     0.842098     0.889072    Uiso  ? C
   C41        1.0     0.712439     0.151279     0.247887    Uiso  ? C
   C42        1.0     0.724919     0.143823     0.275445    Uiso  ? C
   C43        1.0     0.709449     0.148770     0.301045    Uiso  ? C
   H21        1.0     0.689027     0.160226     0.300968    Uiso  ? H
   C44        1.0     0.719860     0.140883     0.326850    Uiso  ? C
   H22        1.0     0.707683     0.144724     0.345631    Uiso  ? H
   C45        1.0     0.747223     0.130247     0.328003    Uiso  ? C
   H23        1.0     0.755722     0.124915     0.349645    Uiso  ? H
   C46        1.0     0.763289     0.122151     0.304076    Uiso  ? C
   C47        1.0     0.752191     0.130779     0.277864    Uiso  ? C
   H24        1.0     0.763577     0.123588     0.260172    Uiso  ? H
   C48        1.0     0.793672     0.111607     0.306360    Uiso  ? C
   C49        1.0     0.682927     0.192563     0.148342    Uiso  ? C
   C50        1.0     0.679104     0.212840     0.124985    Uiso  ? C
   C51        1.0     0.655340     0.230329     0.124284    Uiso  ? C
   H25        1.0     0.640147     0.229093     0.141119    Uiso  ? H
   C52        1.0     0.650319     0.247961     0.100874    Uiso  ? C
   H26        1.0     0.631294     0.261343     0.899678    Uiso  ? H
   C53        1.0     0.668771     0.246060     0.877622    Uiso  ? C
   H27        1.0     0.665138     0.259466     0.860675    Uiso  ? H
   C54        1.0     0.692486     0.228190     0.878650    Uiso  ? C
   C55        1.0     0.696757     0.212516     0.102205    Uiso  ? C
   H28        1.0     0.714775     0.198326     0.101184    Uiso  ? H
   C56        1.0     0.711144     0.225736     0.854392    Uiso  ? C
   C57        1.0     0.826687     0.851123     0.297772    Uiso  ? C
   C58        1.0     0.815944     0.823775     0.291838    Uiso  ? C
   C59        1.0     0.800863     0.808460     0.313832    Uiso  ? C
   H29        1.0     0.799024     0.818356     0.333111    Uiso  ? H
   C60        1.0     0.791311     0.781075     0.308173    Uiso  ? C
   H30        1.0     0.777118     0.771951     0.324167    Uiso  ? H
   C61        1.0     0.796408     0.766752     0.282596    Uiso  ? C
   H31        1.0     0.787050     0.744804     0.279040    Uiso  ? H
   C62        1.0     0.810660     0.781747     0.260558    Uiso  ? C
   C63        1.0     0.820503     0.810488     0.265606    Uiso  ? C
   H32        1.0     0.834265     0.820431     0.248642    Uiso  ? H
   C64        1.0     0.819326     0.767023     0.234526    Uiso  ? C
   C65        1.0     0.890792     0.866568     0.312766    Uiso  ? C
   C66        1.0     0.117631     0.844661     0.313340    Uiso  ? C
   C67        1.0     0.122227     0.830982     0.339741    Uiso  ? C
   H33        1.0     0.113005     0.839794     0.358276    Uiso  ? H
   C68        1.0     0.146500     0.816630     0.344056    Uiso  ? C
   H34        1.0     0.151777     0.809462     0.366031    Uiso  ? H
   C69        1.0     0.167152     0.814384     0.323001    Uiso  ? C
   H35        1.0     0.187794     0.803799     0.327880    Uiso  ? H
   C70        1.0     0.162631     0.826026     0.295593    Uiso  ? C
   C71        1.0     0.136691     0.841448     0.291844    Uiso  ? C
   H36        1.0     0.133229     0.850303     0.272342    Uiso  ? H
   C72        1.0     0.182729     0.818934     0.272224    Uiso  ? C
   C73        1.0     0.727418     0.163074     0.798971    Uiso  ? C
   C74        1.0     0.716388     0.135345     0.791839    Uiso  ? C
   C75        1.0     0.700882     0.134207     0.766759    Uiso  ? C
   H37        1.0     0.701214     0.152328     0.752726    Uiso  ? H
   C76        1.0     0.690755     0.107520     0.757548    Uiso  ? C
   H38        1.0     0.679941     0.107062     0.737694    Uiso  ? H
   C77        1.0     0.696373     0.877575     0.773128    Uiso  ? C
   H39        1.0     0.691115     0.855831     0.766943    Uiso  ? H
   C78        1.0     0.708779     0.880642     0.800631    Uiso  ? C
   C79        1.0     0.720012     0.112763     0.810366    Uiso  ? C
   H40        1.0     0.729022     0.116212     0.831783    Uiso  ? H
   C80        1.0     0.713696     0.855846     0.820431    Uiso  ? C
   C81        1.0     0.785126     0.256810     0.812004    Uiso  ? C
   C82        1.0     0.804653     0.282030     0.815192    Uiso  ? C
   C83        1.0     0.792646     0.309397     0.814969    Uiso  ? C
   H41        1.0     0.770156     0.312589     0.815809    Uiso  ? H
   C84        1.0     0.810011     0.334428     0.819490    Uiso  ? C
   H42        1.0     0.801393     0.355829     0.817252    Uiso  ? H
   C85        1.0     0.838574     0.329668     0.826612    Uiso  ? C
   H43        1.0     0.852866     0.348661     0.831472    Uiso  ? H
   C86        1.0     0.850475     0.302473     0.827373    Uiso  ? C
   C87        1.0     0.834366     0.278389     0.820690    Uiso  ? C
   H44        1.0     0.844233     0.256297     0.821478    Uiso  ? H
   C88        1.0     0.879711     0.298607     0.837640    Uiso  ? C
   C89        1.0     0.179746     0.285468     0.884161    Uiso  ? C
   C90        1.0     0.204297     0.285474     0.102269    Uiso  ? C
   C91        1.0     0.227198     0.303469     0.898302    Uiso  ? C
   H45        1.0     0.227739     0.320183     0.883230    Uiso  ? H
   C92        1.0     0.250254     0.304039     0.115558    Uiso  ? C
   H46        1.0     0.268688     0.319126     0.113382    Uiso  ? H
   C93        1.0     0.251772     0.283251     0.137531    Uiso  ? C
   H47        1.0     0.271095     0.284124     0.150110    Uiso  ? H
   C94        1.0     0.228455     0.263198     0.142717    Uiso  ? C
   C95        1.0     0.205496     0.264389     0.123678    Uiso  ? C
   H48        1.0     0.187798     0.249324     0.123760    Uiso  ? H
   C96        1.0     0.230564     0.242959     0.166481    Uiso  ? C
   O1         1.0     0.809363     0.259633     0.204569    Uiso  ? O
   O2         1.0     0.804850     0.306156     0.207275    Uiso  ? O
   O3         1.0     0.861060     0.248058     0.238284    Uiso  ? O
   O4         1.0     0.840432     0.281163     0.264852    Uiso  ? O
   O5         1.0     0.890538     0.266261     0.224130    Uiso  ? O
   O6         1.0     0.886369     0.311389     0.235562    Uiso  ? O
   O7         1.0     0.864841     0.296686     0.173501    Uiso  ? O
   O8         1.0     0.871076     0.329297     0.208136    Uiso  ? O
   O9         1.0     0.701481     0.136491     0.153353    Uiso  ? O
   O10        1.0     0.668854     0.130260     0.186250    Uiso  ? O
   O11        1.0     0.724845     0.143660     0.225592    Uiso  ? O
   O12        1.0     0.690172     0.166023     0.245552    Uiso  ? O
   O13        1.0     0.730400     0.199415     0.192307    Uiso  ? O
   O14        1.0     0.686049     0.208063     0.203435    Uiso  ? O
   O15        1.0     0.702306     0.174248     0.147405    Uiso  ? O
   O16        1.0     0.670626     0.196548     0.171420    Uiso  ? O
   O17        1.0     0.826217     0.869084     0.277340    Uiso  ? O
   O18        1.0     0.835801     0.858603     0.322585    Uiso  ? O
   O19        1.0     0.889688     0.885237     0.293323    Uiso  ? O
   O20        1.0     0.870428     0.864703     0.329298    Uiso  ? O
   O21        1.0     0.853417     0.150997     0.284182    Uiso  ? O
   O22        1.0     0.866301     0.145114     0.328181    Uiso  ? O
   O23        1.0     0.809161     0.111028     0.283885    Uiso  ? O
   O24        1.0     0.804901     0.106984     0.330326    Uiso  ? O
   O25        1.0     0.747969     0.164691     0.815438    Uiso  ? O
   O26        1.0     0.720301     0.186503     0.785481    Uiso  ? O
   O27        1.0     0.737727     0.223370     0.856999    Uiso  ? O
   O28        1.0     0.700023     0.226240     0.830344    Uiso  ? O
   O29        1.0     0.795145     0.231401     0.811585    Uiso  ? O
   O30        1.0     0.758655     0.259287     0.809577    Uiso  ? O
   O31        1.0     0.790872     0.206753     0.790873    Uiso  ? O
   O32        1.0     0.749071     0.203905     0.769860    Uiso  ? O
   O33        1.0     0.885402     0.288933     0.862148    Uiso  ? O
   O34        1.0     0.104917     0.305605     0.821635    Uiso  ? O
   O35        1.0     0.116272     0.298094     0.887298    Uiso  ? O
   O36        1.0     0.149660     0.329681     0.872726    Uiso  ? O
   O37        1.0     0.164274     0.262933     0.882277    Uiso  ? O
   O38        1.0     0.174791     0.306565     0.867798    Uiso  ? O
   O39        1.0     0.138566     0.260648     0.814851    Uiso  ? O
   O40        1.0     0.177067     0.285790     0.814946    Uiso  ? O
   O41        1.0     0.755610     0.807241     0.824073    Uiso  ? O
   O42        1.0     0.729993     0.770234     0.831692    Uiso  ? O
   O43        1.0     0.741049     0.792904     0.891217    Uiso  ? O
   O44        1.0     0.718840     0.765410     0.861374    Uiso  ? O
   O45        1.0     0.713643     0.852416     0.880297    Uiso  ? O
   O46        1.0     0.682075     0.818756     0.879133    Uiso  ? O
   O47        1.0     0.726146     0.858573     0.844034    Uiso  ? O
   O48        1.0     0.703404     0.832363     0.814545    Uiso  ? O
   O49        1.0     0.856827     0.229328     0.168401    Uiso  ? O
   O50        1.0     0.768299     0.144410     0.173380    Uiso  ? O
   O51        1.0     0.865339     0.109494     0.230791    Uiso  ? O
   O52        1.0     0.794452     0.187334     0.862343    Uiso  ? O
   O53        1.0     0.113918     0.222164     0.865738    Uiso  ? O
   O54        1.0     0.786294     0.841992     0.875778    Uiso  ? O
   Zn1        1.0     0.851912     0.262861     0.197778    Uiso  ? Zn
   Zn2        1.0     0.838805     0.312731     0.233710    Uiso  ? Zn
   Zn3        1.0     0.726339     0.156480     0.181436    Uiso  ? Zn
   Zn4        1.0     0.671704     0.168288     0.207648    Uiso  ? Zn
   Zn5        1.0     0.854025     0.109692     0.275517    Uiso  ? Zn
   Zn6        1.0     0.847160     0.105548     0.339804    Uiso  ? Zn
   Zn7        1.0     0.769164     0.202046     0.831141    Uiso  ? Zn
   Zn8        1.0     0.726905     0.232120     0.795215    Uiso  ? Zn
   Zn9        1.0     0.128520     0.264395     0.857211    Uiso  ? Zn
   Zn10       1.0     0.148306     0.317589     0.831470    Uiso  ? Zn
   Zn11       1.0     0.747661     0.826416     0.863209    Uiso  ? Zn
   Zn12       1.0     0.695267     0.797680     0.842820    Uiso  ? Zn
   C97        1.0     0.163748     0.762774     0.803668    Uiso  ? C
   C98        1.0     0.194093     0.768971     0.804094    Uiso  ? C
   C99        1.0     0.211971     0.752769     0.788393    Uiso  ? C
   H49        1.0     0.204566     0.734633     0.774913    Uiso  ? H
   C100       1.0     0.239775     0.760400     0.785561    Uiso  ? C
   H50        1.0     0.252355     0.746778     0.771761    Uiso  ? H
   C101       1.0     0.251377     0.782784     0.800608    Uiso  ? C
   H51        1.0     0.272969     0.786463     0.798032    Uiso  ? H
   C102       1.0     0.232933     0.798623     0.818810    Uiso  ? C
   C103       1.0     0.204292     0.792902     0.819745    Uiso  ? C
   H52        1.0     0.191650     0.805414     0.832087    Uiso  ? H
   C104       1.0     0.241842     0.825316     0.830389    Uiso  ? C
   C105       1.0     0.121282     0.784884     0.756517    Uiso  ? C
   C106       1.0     0.120765     0.802410     0.730136    Uiso  ? C
   C107       1.0     0.130915     0.791022     0.704367    Uiso  ? C
   H53        1.0     0.137390     0.768861     0.702616    Uiso  ? H
   C108       1.0     0.136182     0.808318     0.681014    Uiso  ? C
   H54        1.0     0.142102     0.798727     0.660749    Uiso  ? H
   C109       1.0     0.127297     0.837145     0.682426    Uiso  ? C
   H55        1.0     0.132757     0.851596     0.665166    Uiso  ? H
   C110       1.0     0.115055     0.848942     0.706847    Uiso  ? C
   C111       1.0     0.113685     0.832039     0.731759    Uiso  ? C
   H56        1.0     0.106009     0.841831     0.750271    Uiso  ? H
   C112       1.0     0.111830     0.880072     0.709538    Uiso  ? C
   C113       1.0     0.849417     0.750690     0.792929    Uiso  ? C
   C114       1.0     0.817675     0.749440     0.786651    Uiso  ? C
   C115       1.0     0.806599     0.733211     0.763976    Uiso  ? C
   H57        1.0     0.819172     0.720019     0.751200    Uiso  ? H
   C116       1.0     0.777831     0.733353     0.759890    Uiso  ? C
   H58        1.0     0.770711     0.721337     0.740161    Uiso  ? H
   C117       1.0     0.758072     0.749813     0.775298    Uiso  ? C
   H59        1.0     0.735523     0.750976     0.771437    Uiso  ? H
   C118       1.0     0.768681     0.765817     0.799224    Uiso  ? C
   C119       1.0     0.798676     0.764077     0.805241    Uiso  ? C
   H60        1.0     0.807332     0.776048     0.823490    Uiso  ? H
   C120       1.0     0.749575     0.781586     0.818676    Uiso  ? C
   C121       1.0     0.891973     0.728700     0.848182    Uiso  ? C
   C122       1.0     0.889480     0.712140     0.874068    Uiso  ? C
   C123       1.0     0.111231     0.685748     0.877516    Uiso  ? C
   H61        1.0     0.124906     0.676626     0.862033    Uiso  ? H
   C124       1.0     0.107470     0.669528     0.100971    Uiso  ? C
   H62        1.0     0.119147     0.650899     0.104472    Uiso  ? H
   C125       1.0     0.883851     0.678457     0.122650    Uiso  ? C
   H63        1.0     0.879629     0.664807     0.140169    Uiso  ? H
   C126       1.0     0.871280     0.705227     0.121251    Uiso  ? C
   C127       1.0     0.872677     0.721462     0.895793    Uiso  ? C
   H64        1.0     0.862215     0.741686     0.895892    Uiso  ? H
   C128       1.0     0.857098     0.715477     0.146837    Uiso  ? C
   C129       1.0     0.273524     0.124461     0.876732    Uiso  ? C
   C130       1.0     0.278037     0.152261     0.891378    Uiso  ? C
   C131       1.0     0.285186     0.175694     0.875454    Uiso  ? C
   H65        1.0     0.289014     0.173432     0.852408    Uiso  ? H
   C132       1.0     0.288073     0.202781     0.888281    Uiso  ? C
   H66        1.0     0.293259     0.222416     0.877192    Uiso  ? H
   C133       1.0     0.283522     0.206355     0.116967    Uiso  ? C
   H67        1.0     0.284372     0.226189     0.127154    Uiso  ? H
   C134       1.0     0.273571     0.184791     0.132632    Uiso  ? C
   C135       1.0     0.269779     0.157502     0.118951    Uiso  ? C
   H68        1.0     0.258440     0.141114     0.129879    Uiso  ? H
   C136       1.0     0.261517     0.186584     0.160229    Uiso  ? C
   C137       1.0     0.246784     0.880313     0.793584    Uiso  ? C
   C138       1.0     0.233374     0.880839     0.765792    Uiso  ? C
   C139       1.0     0.243851     0.864152     0.743425    Uiso  ? C
   H69        1.0     0.262532     0.851543     0.748459    Uiso  ? H
   C140       1.0     0.228438     0.863188     0.718693    Uiso  ? C
   H70        1.0     0.235180     0.848868     0.702052    Uiso  ? H
   C141       1.0     0.204456     0.879406     0.715354    Uiso  ? C
   H71        1.0     0.193224     0.875849     0.695601    Uiso  ? H
   C142       1.0     0.196306     0.102799     0.736753    Uiso  ? C
   C143       1.0     0.209197     0.102867     0.762478    Uiso  ? C
   H72        1.0     0.198873     0.114946     0.780443    Uiso  ? H
   C144       1.0     0.168545     0.116159     0.734027    Uiso  ? C
   C145       1.0     0.274669     0.840068     0.890373    Uiso  ? C
   C146       1.0     0.281299     0.822682     0.113401    Uiso  ? C
   C147       1.0     0.305217     0.805071     0.112984    Uiso  ? C
   H73        1.0     0.318178     0.802311     0.894207    Uiso  ? H
   C148       1.0     0.309295     0.785495     0.133381    Uiso  ? C
   H74        1.0     0.324850     0.770037     0.134724    Uiso  ? H
   C149       1.0     0.291277     0.785649     0.157056    Uiso  ? C
   H75        1.0     0.294681     0.770359     0.174459    Uiso  ? H
   C150       1.0     0.269493     0.804791     0.160243    Uiso  ? C
   C151       1.0     0.264385     0.824345     0.137993    Uiso  ? C
   H76        1.0     0.246857     0.841443     0.138468    Uiso  ? H
   C152       1.0     0.252232     0.803994     0.187538    Uiso  ? C
   C153       1.0     0.154630     0.181688     0.741431    Uiso  ? C
   C154       1.0     0.172852     0.204570     0.754224    Uiso  ? C
   C155       1.0     0.201196     0.207183     0.747817    Uiso  ? C
   H77        1.0     0.210659     0.190518     0.734224    Uiso  ? H
   C156       1.0     0.217546     0.227058     0.761259    Uiso  ? C
   H78        1.0     0.239080     0.228330     0.757276    Uiso  ? H
   C157       1.0     0.206166     0.247138     0.779090    Uiso  ? C
   H79        1.0     0.220483     0.261943     0.790542    Uiso  ? H
   C158       1.0     0.176241     0.244606     0.786246    Uiso  ? C
   C159       1.0     0.160756     0.223311     0.774296    Uiso  ? C
   H80        1.0     0.138170     0.221388     0.776791    Uiso  ? H
   C160       1.0     0.163288     0.265373     0.804800    Uiso  ? C
   C161       1.0     0.864131     0.159437     0.724854    Uiso  ? C
   C162       1.0     0.834504     0.167510     0.721885    Uiso  ? C
   C163       1.0     0.818606     0.160637     0.698333    Uiso  ? C
   H81        1.0     0.830377     0.150194     0.681052    Uiso  ? H
   C164       1.0     0.790037     0.169806     0.695490    Uiso  ? C
   H82        1.0     0.780005     0.163280     0.677046    Uiso  ? H
   C165       1.0     0.774524     0.179212     0.719443    Uiso  ? C
   H83        1.0     0.752589     0.184320     0.717798    Uiso  ? H
   C166       1.0     0.790993     0.186209     0.744814    Uiso  ? C
   C167       1.0     0.819788     0.179322     0.745362    Uiso  ? C
   H84        1.0     0.831183     0.184045     0.764427    Uiso  ? H
   C168       1.0     0.775893     0.198809     0.770135    Uiso  ? C
   C169       1.0     0.237639     0.853656     0.250405    Uiso  ? C
   C170       1.0     0.249964     0.880525     0.260721    Uiso  ? C
   C171       1.0     0.274243     0.882520     0.279303    Uiso  ? C
   H85        1.0     0.282214     0.864675     0.290307    Uiso  ? H
   C172       1.0     0.282884     0.114989     0.289515    Uiso  ? C
   H86        1.0     0.298501     0.116944     0.305773    Uiso  ? H
   C173       1.0     0.272956     0.139117     0.277374    Uiso  ? C
   H87        1.0     0.281884     0.157390     0.285627    Uiso  ? H
   C174       1.0     0.251549     0.138225     0.257048    Uiso  ? C
   C175       1.0     0.237255     0.111341     0.252218    Uiso  ? C
   H88        1.0     0.215594     0.109893     0.241925    Uiso  ? H
   C176       1.0     0.244447     0.163909     0.241783    Uiso  ? C
   C177       1.0     0.183644     0.758562     0.240497    Uiso  ? C
   C178       1.0     0.160213     0.738700     0.249445    Uiso  ? C
   C179       1.0     0.163204     0.723022     0.274879    Uiso  ? C
   H89        1.0     0.182495     0.724412     0.286941    Uiso  ? H
   C180       1.0     0.138056     0.712003     0.286662    Uiso  ? C
   H90        1.0     0.135834     0.703035     0.308402    Uiso  ? H
   C181       1.0     0.112788     0.717759     0.272734    Uiso  ? C
   H91        1.0     0.889222     0.711218     0.282804    Uiso  ? H
   C182       1.0     0.110418     0.729063     0.245477    Uiso  ? C
   C183       1.0     0.134480     0.740169     0.233778    Uiso  ? C
   H92        1.0     0.134571     0.748744     0.214094    Uiso  ? H
   C184       1.0     0.879094     0.729094     0.227237    Uiso  ? C
   C185       1.0     0.788456     0.731489     0.163573    Uiso  ? C
   C186       1.0     0.764471     0.726381     0.143618    Uiso  ? C
   C187       1.0     0.750682     0.700848     0.141931    Uiso  ? C
   H93        1.0     0.755838     0.683777     0.155373    Uiso  ? H
   C188       1.0     0.729300     0.696231     0.120982    Uiso  ? C
   H94        1.0     0.719614     0.675958     0.119171    Uiso  ? H
   C189       1.0     0.721456     0.718775     0.101454    Uiso  ? C
   H95        1.0     0.706719     0.714786     0.885312    Uiso  ? H
   C190       1.0     0.735466     0.745052     0.103302    Uiso  ? C
   C191       1.0     0.756970     0.747322     0.124648    Uiso  ? C
   H96        1.0     0.766765     0.767814     0.126566    Uiso  ? H
   C192       1.0     0.732210     0.768454     0.883491    Uiso  ? C
   O55        1.0     0.147506     0.769721     0.824090    Uiso  ? O
   O56        1.0     0.153831     0.748513     0.782806    Uiso  ? O
   O57        1.0     0.106509     0.794447     0.777594    Uiso  ? O
   O58        1.0     0.132615     0.761461     0.756424    Uiso  ? O
   O59        1.0     0.859436     0.762646     0.815792    Uiso  ? O
   O60        1.0     0.866676     0.738558     0.776994    Uiso  ? O
   O61        1.0     0.876939     0.749900     0.844369    Uiso  ? O
   O62        1.0     0.115704     0.720947     0.830715    Uiso  ? O
   O63        1.0     0.257456     0.106470     0.888832    Uiso  ? O
   O64        1.0     0.281909     0.118798     0.853053    Uiso  ? O
   O65        1.0     0.233124     0.891080     0.814813    Uiso  ? O
   O66        1.0     0.269817     0.867825     0.798011    Uiso  ? O
   O67        1.0     0.229271     0.835876     0.852103    Uiso  ? O
   O68        1.0     0.266867     0.835598     0.823456    Uiso  ? O
   O69        1.0     0.249536     0.848798     0.887260    Uiso  ? O
   O70        1.0     0.293263     0.846621     0.872622    Uiso  ? O
   O71        1.0     0.146758     0.162239     0.759152    Uiso  ? O
   O72        1.0     0.146349     0.180590     0.715672    Uiso  ? O
   O73        1.0     0.875843     0.160048     0.748603    Uiso  ? O
   O74        1.0     0.878126     0.151033     0.703765    Uiso  ? O
   O75        1.0     0.103682     0.891239     0.733652    Uiso  ? O
   O76        1.0     0.126964     0.895754     0.693996    Uiso  ? O
   O77        1.0     0.154855     0.126121     0.755388    Uiso  ? O
   O78        1.0     0.157023     0.117139     0.709229    Uiso  ? O
   O79        1.0     0.213455     0.851723     0.235789    Uiso  ? O
   O80        1.0     0.251568     0.830594     0.255441    Uiso  ? O
   O81        1.0     0.231901     0.820607     0.190133    Uiso  ? O
   O82        1.0     0.254440     0.783818     0.205493    Uiso  ? O
   O83        1.0     0.179778     0.775533     0.220874    Uiso  ? O
   O84        1.0     0.202688     0.765472     0.258618    Uiso  ? O
   O85        1.0     0.183574     0.833650     0.249761    Uiso  ? O
   O86        1.0     0.201389     0.799536     0.274523    Uiso  ? O
   O87        1.0     0.880866     0.739836     0.202485    Uiso  ? O
   O88        1.0     0.854025     0.721827     0.236703    Uiso  ? O
   O89        1.0     0.841634     0.738187     0.145782    Uiso  ? O
   O90        1.0     0.859237     0.704404     0.171295    Uiso  ? O
   O91        1.0     0.810361     0.744677     0.153853    Uiso  ? O
   O92        1.0     0.790459     0.716004     0.185239    Uiso  ? O
   O93        1.0     0.823059     0.780196     0.211983    Uiso  ? O
   O94        1.0     0.823464     0.739851     0.234621    Uiso  ? O
   O95        1.0     0.191397     0.222842     0.215730    Uiso  ? O
   O96        1.0     0.228162     0.245517     0.234791    Uiso  ? O
   O97        1.0     0.208640     0.228898     0.173045    Uiso  ? O
   O98        1.0     0.254483     0.239839     0.179177    Uiso  ? O
   O99        1.0     0.236371     0.178411     0.164347    Uiso  ? O
   O100       1.0     0.270409     0.206779     0.175508    Uiso  ? O
   O101       1.0     0.221751     0.164617     0.228468    Uiso  ? O
   O102       1.0     0.261954     0.183670     0.236836    Uiso  ? O
   O103       1.0     0.104360     0.816694     0.839204    Uiso  ? O
   O104       1.0     0.197803     0.105365     0.875611    Uiso  ? O
   O105       1.0     0.891362     0.121102     0.798641    Uiso  ? O
   O106       1.0     0.167131     0.828230     0.183274    Uiso  ? O
   O107       1.0     0.875324     0.791404     0.165383    Uiso  ? O
   O108       1.0     0.172250     0.160071     0.183384    Uiso  ? O
   Zn13       1.0     0.105506     0.779157     0.821241    Uiso  ? Zn
   Zn14       1.0     0.116049     0.728969     0.786676    Uiso  ? Zn
   Zn15       1.0     0.232378     0.878944     0.859307    Uiso  ? Zn
   Zn16       1.0     0.289694     0.873249     0.837381    Uiso  ? Zn
   Zn17       1.0     0.110705     0.132769     0.759389    Uiso  ? Zn
   Zn18       1.0     0.124190     0.146754     0.698205    Uiso  ? Zn
   Zn19       1.0     0.196221     0.817183     0.211616    Uiso  ? Zn
   Zn20       1.0     0.241564     0.788278     0.248934    Uiso  ? Zn
   Zn21       1.0     0.846914     0.760130     0.181578    Uiso  ? Zn
   Zn22       1.0     0.828046     0.707162     0.203388    Uiso  ? Zn
   Zn23       1.0     0.208127     0.186773     0.195145    Uiso  ? Zn
   Zn24       1.0     0.261112     0.221454     0.217979    Uiso  ? Zn
   H97        1.0     0.193154     0.124970     0.875808    Uiso  ? H
   H98        1.0     0.183337     0.887339     0.884922    Uiso  ? H
   H99        1.0     0.782994     0.148450     0.188728    Uiso  ? H
   H100       1.0     0.773613     0.137610     0.154709    Uiso  ? H
   H101       1.0     0.804456     0.834233     0.868394    Uiso  ? H
   H102       1.0     0.784681     0.852539     0.892622    Uiso  ? H
   H103       1.0     0.801743     0.199271     0.878154    Uiso  ? H
   H104       1.0     0.802497     0.169060     0.860140    Uiso  ? H
   H105       1.0     0.168051     0.140913     0.189033    Uiso  ? H
   H106       1.0     0.159132     0.172618     0.172087    Uiso  ? H
   H107       1.0     0.868864     0.211935     0.170587    Uiso  ? H
   H108       1.0     0.842931     0.228917     0.151433    Uiso  ? H
   H109       1.0     0.111573     0.207749     0.852472    Uiso  ? H
   H110       1.0     0.106932     0.219318     0.884388    Uiso  ? H
   H111       1.0     0.165590     0.819880     0.165084    Uiso  ? H
   H112       1.0     0.160694     0.847039     0.185124    Uiso  ? H
   H113       1.0     0.852340     0.110478     0.214439    Uiso  ? H
   H114       1.0     0.884798     0.113283     0.228606    Uiso  ? H
   H115       1.0     0.891320     0.783598     0.155390    Uiso  ? H
   H116       1.0     0.871884     0.811726     0.166085    Uiso  ? H
   H117       1.0     0.878047     0.106329     0.796803    Uiso  ? H
   H118       1.0     0.893658     0.133060     0.815440    Uiso  ? H
   H119       1.0     0.892269     0.815386     0.858157    Uiso  ? H
   H120       1.0     0.115661     0.832637     0.833439    Uiso  ? H
   C193       1.0     0.841367     0.308876     0.486104    Uiso  ? C
   C194       1.0     0.826389     0.306483     0.512714    Uiso  ? C
   C195       1.0     0.820147     0.279851     0.524857    Uiso  ? C
   H121       1.0     0.829127     0.260879     0.517269    Uiso  ? H
   C196       1.0     0.803966     0.277106     0.549615    Uiso  ? C
   H122       1.0     0.800077     0.255752     0.557671    Uiso  ? H
   C197       1.0     0.793767     0.302131     0.562588    Uiso  ? C
   H123       1.0     0.782943     0.302513     0.582043    Uiso  ? H
   C198       1.0     0.801169     0.329986     0.551838    Uiso  ? C
   C199       1.0     0.819466     0.331622     0.527722    Uiso  ? C
   H124       1.0     0.823389     0.352709     0.517903    Uiso  ? H
   C200       1.0     0.791266     0.356613     0.563479    Uiso  ? C
   C201       1.0     0.823633     0.332489     0.425015    Uiso  ? C
   C202       1.0     0.796567     0.347122     0.414292    Uiso  ? C
   C203       1.0     0.771792     0.332642     0.412370    Uiso  ? C
   H125       1.0     0.771377     0.308693     0.411505    Uiso  ? H
   C204       1.0     0.747057     0.346861     0.404683    Uiso  ? C
   H126       1.0     0.725924     0.335505     0.405795    Uiso  ? H
   C205       1.0     0.746712     0.375846     0.399494    Uiso  ? C
   H127       1.0     0.727087     0.387289     0.394844    Uiso  ? H
   C206       1.0     0.772299     0.391257     0.404791    Uiso  ? C
   C207       1.0     0.797553     0.377758     0.412027    Uiso  ? C
   H128       1.0     0.818671     0.387997     0.413406    Uiso  ? H
   C208       1.0     0.772523     0.422350     0.402116    Uiso  ? C
   C209       1.0     0.877736     0.324624     0.387671    Uiso  ? C
   C210       1.0     0.883225     0.334210     0.357939    Uiso  ? C
   C211       1.0     0.862109     0.328655     0.337746    Uiso  ? C
   H129       1.0     0.842543     0.318100     0.343933    Uiso  ? H
   C212       1.0     0.864495     0.339074     0.310273    Uiso  ? C
   H130       1.0     0.848387     0.331137     0.295879    Uiso  ? H
   C213       1.0     0.888399     0.351781     0.302369    Uiso  ? C
   H131       1.0     0.889474     0.358958     0.279924    Uiso  ? H
   C214       1.0     0.116249     0.354706     0.320780    Uiso  ? C
   C215       1.0     0.114266     0.344594     0.348763    Uiso  ? C
   H132       1.0     0.131657     0.347207     0.362710    Uiso  ? H
   C216       1.0     0.138098     0.374676     0.312878    Uiso  ? C
   C217       1.0     0.123518     0.281996     0.445301    Uiso  ? C
   C218       1.0     0.153973     0.269815     0.445903    Uiso  ? C
   C219       1.0     0.160893     0.243787     0.432561    Uiso  ? C
   H133       1.0     0.143435     0.231448     0.423476    Uiso  ? H
   C220       1.0     0.188426     0.235780     0.429631    Uiso  ? C
   H134       1.0     0.193712     0.215861     0.416872    Uiso  ? H
   C221       1.0     0.210666     0.251151     0.441677    Uiso  ? C
   H135       1.0     0.231946     0.244408     0.442096    Uiso  ? H
   C222       1.0     0.203580     0.277905     0.454512    Uiso  ? C
   C223       1.0     0.175696     0.287655     0.454553    Uiso  ? C
   H136       1.0     0.170717     0.306489     0.466494    Uiso  ? H
   C224       1.0     0.225647     0.296752     0.466225    Uiso  ? C
   C225       1.0     0.766508     0.442608     0.622172    Uiso  ? C
   C226       1.0     0.771305     0.464887     0.644455    Uiso  ? C
   C227       1.0     0.758946     0.463380     0.672027    Uiso  ? C
   H137       1.0     0.741684     0.447496     0.675624    Uiso  ? H
   C228       1.0     0.760849     0.486590     0.690437    Uiso  ? C
   H138       1.0     0.746945     0.486347     0.709837    Uiso  ? H
   C229       1.0     0.782813     0.506018     0.686425    Uiso  ? C
   H139       1.0     0.788180     0.520935     0.703439    Uiso  ? H
   C230       1.0     0.800918     0.504148     0.661676    Uiso  ? C
   C231       1.0     0.793612     0.484965     0.640794    Uiso  ? C
   H140       1.0     0.806493     0.481898     0.620816    Uiso  ? H
   C232       1.0     0.826668     0.523483     0.657180    Uiso  ? C
   C233       1.0     0.743335     0.424843     0.535028    Uiso  ? C
   C234       1.0     0.728412     0.441481     0.513568    Uiso  ? C
   C235       1.0     0.700269     0.451426     0.517070    Uiso  ? C
   H141       1.0     0.689095     0.444883     0.536781    Uiso  ? H
   C236       1.0     0.686011     0.466658     0.494836    Uiso  ? C
   H142       1.0     0.663752     0.476171     0.494999    Uiso  ? H
   C237       1.0     0.701259     0.474800     0.471051    Uiso  ? C
   H143       1.0     0.690138     0.488443     0.455095    Uiso  ? H
   C238       1.0     0.729207     0.465412     0.467655    Uiso  ? C
   C239       1.0     0.741854     0.447278     0.486765    Uiso  ? C
   H144       1.0     0.762481     0.438482     0.483200    Uiso  ? H
   C240       1.0     0.746508     0.473288     0.441329    Uiso  ? C
   C241       1.0     0.809329     0.394506     0.616687    Uiso  ? C
   C242       1.0     0.828648     0.393302     0.640279    Uiso  ? C
   C243       1.0     0.819155     0.391244     0.668519    Uiso  ? C
   H145       1.0     0.797807     0.392236     0.673424    Uiso  ? H
   C244       1.0     0.837344     0.389852     0.691682    Uiso  ? C
   H146       1.0     0.828485     0.387147     0.713040    Uiso  ? H
   C245       1.0     0.867102     0.389362     0.685861    Uiso  ? C
   H147       1.0     0.881153     0.391208     0.705119    Uiso  ? H
   C246       1.0     0.876458     0.388268     0.658367    Uiso  ? C
   C247       1.0     0.856941     0.387312     0.636837    Uiso  ? C
   H148       1.0     0.864856     0.387444     0.615602    Uiso  ? H
   C248       1.0     0.112815     0.386229     0.652085    Uiso  ? C
   C249       1.0     0.763878     0.528620     0.415066    Uiso  ? C
   C250       1.0     0.756635     0.556045     0.427592    Uiso  ? C
   C251       1.0     0.727867     0.561100     0.432219    Uiso  ? C
   H149       1.0     0.713026     0.543788     0.432134    Uiso  ? H
   C252       1.0     0.719090     0.586659     0.443533    Uiso  ? C
   H150       1.0     0.698251     0.589056     0.453063    Uiso  ? H
   C253       1.0     0.740542     0.605946     0.451969    Uiso  ? C
   H151       1.0     0.733177     0.621989     0.465061    Uiso  ? H
   C254       1.0     0.769848     0.601972     0.444695    Uiso  ? C
   C255       1.0     0.776457     0.575487     0.431785    Uiso  ? C
   H152       1.0     0.798015     0.571076     0.426397    Uiso  ? H
   C256       1.0     0.790586     0.622205     0.453213    Uiso  ? C
   C257       1.0     0.797782     0.490389     0.344153    Uiso  ? C
   C258       1.0     0.813371     0.503074     0.319482    Uiso  ? C
   C259       1.0     0.802093     0.499918     0.291339    Uiso  ? C
   H153       1.0     0.783464     0.486332     0.287433    Uiso  ? H
   C260       1.0     0.814424     0.514208     0.268453    Uiso  ? C
   H154       1.0     0.805170     0.511094     0.247133    Uiso  ? H
   C261       1.0     0.837387     0.531759     0.272531    Uiso  ? C
   H155       1.0     0.849273     0.541757     0.256647    Uiso  ? H
   C262       1.0     0.849180     0.534900     0.298940    Uiso  ? C
   C263       1.0     0.835986     0.520946     0.323026    Uiso  ? C
   H156       1.0     0.840875     0.526378     0.346010    Uiso  ? H
   C264       1.0     0.872215     0.555386     0.308419    Uiso  ? C
   C265       1.0     0.158905     0.427590     0.677241    Uiso  ? C
   C266       1.0     0.145578     0.450711     0.693218    Uiso  ? C
   C267       1.0     0.139700     0.448596     0.723063    Uiso  ? C
   H157       1.0     0.147744     0.427816     0.733169    Uiso  ? H
   C268       1.0     0.125745     0.470060     0.737346    Uiso  ? C
   H158       1.0     0.120453     0.468513     0.760290    Uiso  ? H
   C269       1.0     0.114858     0.492656     0.722455    Uiso  ? C
   H159       1.0     0.896235     0.508190     0.732298    Uiso  ? H
   C270       1.0     0.116933     0.493778     0.692667    Uiso  ? C
   C271       1.0     0.134484     0.474327     0.678282    Uiso  ? C
   H160       1.0     0.140359     0.479948     0.656379    Uiso  ? H
   C272       1.0     0.895330     0.516849     0.676018    Uiso  ? C
   C273       1.0     0.186760     0.348915     0.610483    Uiso  ? C
   C274       1.0     0.196993     0.327044     0.591967    Uiso  ? C
   C275       1.0     0.191647     0.298378     0.598451    Uiso  ? C
   H161       1.0     0.179108     0.291585     0.617240    Uiso  ? H
   C276       1.0     0.199996     0.277180     0.579099    Uiso  ? C
   H162       1.0     0.198142     0.254877     0.580969    Uiso  ? H
   C277       1.0     0.214549     0.283363     0.554187    Uiso  ? C
   H163       1.0     0.220594     0.266013     0.539386    Uiso  ? H
   C278       1.0     0.218309     0.312576     0.548229    Uiso  ? C
   C279       1.0     0.209208     0.334515     0.565787    Uiso  ? C
   H164       1.0     0.209913     0.355159     0.558644    Uiso  ? H
   C280       1.0     0.233800     0.322235     0.522146    Uiso  ? C
   C281       1.0     0.263160     0.341260     0.423834    Uiso  ? C
   C282       1.0     0.262308     0.340274     0.392769    Uiso  ? C
   C283       1.0     0.287187     0.331957     0.376858    Uiso  ? C
   H165       1.0     0.306002     0.320683     0.386813    Uiso  ? H
   C284       1.0     0.285483     0.331648     0.347490    Uiso  ? C
   H166       1.0     0.298607     0.317038     0.334982    Uiso  ? H
   C285       1.0     0.263213     0.345024     0.332922    Uiso  ? C
   H167       1.0     0.262734     0.346160     0.310934    Uiso  ? H
   C286       1.0     0.241630     0.357173     0.349130    Uiso  ? C
   C287       1.0     0.240735     0.353983     0.377949    Uiso  ? C
   H168       1.0     0.223790     0.364337     0.390236    Uiso  ? H
   C288       1.0     0.221227     0.374125     0.333719    Uiso  ? C
   O109       1.0     0.848279     0.332529     0.474834    Uiso  ? O
   O110       1.0     0.847842     0.285224     0.474190    Uiso  ? O
   O111       1.0     0.841268     0.343888     0.441736    Uiso  ? O
   O112       1.0     0.829174     0.308191     0.415384    Uiso  ? O
   O113       1.0     0.892223     0.336734     0.405732    Uiso  ? O
   O114       1.0     0.860322     0.304228     0.392902    Uiso  ? O
   O115       1.0     0.116418     0.300453     0.464434    Uiso  ? O
   O116       1.0     0.106140     0.273251     0.426312    Uiso  ? O
   O117       1.0     0.776945     0.448108     0.597353    Uiso  ? O
   O118       1.0     0.756582     0.417590     0.626318    Uiso  ? O
   O119       1.0     0.768172     0.416560     0.529162    Uiso  ? O
   O120       1.0     0.735341     0.423081     0.560331    Uiso  ? O
   O121       1.0     0.807061     0.378925     0.561329    Uiso  ? O
   O122       1.0     0.767383     0.357304     0.576162    Uiso  ? O
   O123       1.0     0.818858     0.395646     0.590151    Uiso  ? O
   O124       1.0     0.781510     0.392885     0.621579    Uiso  ? O
   O125       1.0     0.788150     0.518084     0.417448    Uiso  ? O
   O126       1.0     0.743062     0.514640     0.404218    Uiso  ? O
   O127       1.0     0.812601     0.483504     0.366146    Uiso  ? O
   O128       1.0     0.771275     0.493574     0.347954    Uiso  ? O
   O129       1.0     0.789318     0.437483     0.417510    Uiso  ? O
   O130       1.0     0.753961     0.434741     0.385732    Uiso  ? O
   O131       1.0     0.772203     0.463727     0.439006    Uiso  ? O
   O132       1.0     0.731835     0.483496     0.420897    Uiso  ? O
   O133       1.0     0.168333     0.432104     0.653371    Uiso  ? O
   O134       1.0     0.155747     0.402783     0.686531    Uiso  ? O
   O135       1.0     0.123283     0.393754     0.628285    Uiso  ? O
   O136       1.0     0.129959     0.381821     0.672468    Uiso  ? O
   O137       1.0     0.195380     0.373741     0.606127    Uiso  ? O
   O138       1.0     0.168059     0.343913     0.628406    Uiso  ? O
   O139       1.0     0.203033     0.409279     0.644198    Uiso  ? O
   O140       1.0     0.206959     0.381011     0.679704    Uiso  ? O
   O141       1.0     0.229538     0.346366     0.512172    Uiso  ? O
   O142       1.0     0.253319     0.307551     0.510773    Uiso  ? O
   O143       1.0     0.223018     0.323682     0.461572    Uiso  ? O
   O144       1.0     0.246691     0.287343     0.478613    Uiso  ? O
   O145       1.0     0.239949     0.345424     0.438173    Uiso  ? O
   O146       1.0     0.283821     0.331499     0.437342    Uiso  ? O
   O147       1.0     0.286491     0.374867     0.483717    Uiso  ? O
   O148       1.0     0.306286     0.337981     0.504035    Uiso  ? O
   O149       1.0     0.896318     0.583183     0.618079    Uiso  ? O
   O150       1.0     0.110370     0.581072     0.664191    Uiso  ? O
   O151       1.0     0.864521     0.584126     0.610907    Uiso  ? O
   O152       1.0     0.835653     0.590406     0.645879    Uiso  ? O
   O153       1.0     0.836342     0.527745     0.631966    Uiso  ? O
   O154       1.0     0.838313     0.532675     0.679100    Uiso  ? O
   O155       1.0     0.107837     0.521384     0.651243    Uiso  ? O
   O156       1.0     0.874459     0.529305     0.688011    Uiso  ? O
   O157       1.0     0.122166     0.362069     0.461791    Uiso  ? O
   O158       1.0     0.812885     0.450635     0.538922    Uiso  ? O
   O159       1.0     0.845731     0.479681     0.423762    Uiso  ? O
   O160       1.0     0.162142     0.429881     0.582058    Uiso  ? O
   O161       1.0     0.224890     0.402202     0.471110    Uiso  ? O
   O162       1.0     0.889838     0.512614     0.593406    Uiso  ? O
   Zn25       1.0     0.885970     0.331834     0.448008    Uiso  ? Zn
   Zn26       1.0     0.856946     0.277543     0.430365    Uiso  ? Zn
   Zn27       1.0     0.791650     0.421884     0.565340    Uiso  ? Zn
   Zn28       1.0     0.751566     0.393298     0.589879    Uiso  ? Zn
   Zn29       1.0     0.803960     0.480789     0.409008    Uiso  ? Zn
   Zn30       1.0     0.745953     0.477133     0.376847    Uiso  ? Zn
   Zn31       1.0     0.166671     0.404631     0.619705    Uiso  ? Zn
   Zn32       1.0     0.169446     0.362607     0.668079    Uiso  ? Zn
   Zn33       1.0     0.243847     0.362853     0.476074    Uiso  ? Zn
   Zn34       1.0     0.282909     0.315565     0.477195    Uiso  ? Zn
   Zn35       1.0     0.877925     0.540816     0.621657    Uiso  ? Zn
   Zn36       1.0     0.863783     0.570027     0.675575    Uiso  ? Zn
   C289       1.0     0.258660     0.646048     0.489974    Uiso  ? C
   C290       1.0     0.281894     0.640134     0.470777    Uiso  ? C
   C291       1.0     0.305421     0.659475     0.468649    Uiso  ? C
   H169       1.0     0.305319     0.677353     0.482524    Uiso  ? H
   C292       1.0     0.326300     0.656003     0.448506    Uiso  ? C
   H170       1.0     0.340494     0.672423     0.444714    Uiso  ? H
   C293       1.0     0.324749     0.633905     0.430401    Uiso  ? C
   H171       1.0     0.340439     0.632106     0.414668    Uiso  ? H
   C294       1.0     0.306156     0.611103     0.433985    Uiso  ? C
   C295       1.0     0.283942     0.615048     0.453906    Uiso  ? C
   H172       1.0     0.269440     0.597329     0.457863    Uiso  ? H
   C296       1.0     0.304878     0.585105     0.416083    Uiso  ? C
   C297       1.0     0.251507     0.631947     0.561963    Uiso  ? C
   C298       1.0     0.266875     0.617409     0.585062    Uiso  ? C
   C299       1.0     0.273745     0.631434     0.610625    Uiso  ? C
   H173       1.0     0.268656     0.654235     0.613959    Uiso  ? H
   C300       1.0     0.284005     0.615942     0.633662    Uiso  ? C
   H174       1.0     0.290453     0.628816     0.651171    Uiso  ? H
   C301       1.0     0.291975     0.588270     0.630930    Uiso  ? C
   H175       1.0     0.302229     0.576515     0.646847    Uiso  ? H
   C302       1.0     0.288200     0.574220     0.604059    Uiso  ? C
   C303       1.0     0.272710     0.587763     0.582082    Uiso  ? C
   H176       1.0     0.264832     0.575468     0.565238    Uiso  ? H
   C304       1.0     0.298399     0.545528     0.598908    Uiso  ? C
   C305       1.0     0.186815     0.635397     0.572198    Uiso  ? C
   C306       1.0     0.173913     0.631758     0.601653    Uiso  ? C
   C307       1.0     0.178843     0.652648     0.621496    Uiso  ? C
   H177       1.0     0.192947     0.668324     0.615621    Uiso  ? H
   C308       1.0     0.168343     0.652067     0.648874    Uiso  ? C
   H178       1.0     0.175353     0.667052     0.663679    Uiso  ? H
   C309       1.0     0.151544     0.628312     0.654609    Uiso  ? C
   H179       1.0     0.142536     0.628242     0.677409    Uiso  ? H
   C310       1.0     0.142206     0.610438     0.633285    Uiso  ? C
   C311       1.0     0.154208     0.611012     0.607641    Uiso  ? C
   H180       1.0     0.150313     0.593191     0.593512    Uiso  ? H
   C312       1.0     0.118032     0.589671     0.639215    Uiso  ? C
   C313       1.0     0.180107     0.695462     0.509586    Uiso  ? C
   C314       1.0     0.156455     0.707954     0.493787    Uiso  ? C
   C315       1.0     0.153475     0.737715     0.488232    Uiso  ? C
   H181       1.0     0.169700     0.751833     0.495595    Uiso  ? H
   C316       1.0     0.128259     0.748638     0.477036    Uiso  ? C
   H182       1.0     0.126858     0.771249     0.475693    Uiso  ? H
   C317       1.0     0.106782     0.730203     0.470356    Uiso  ? C
   H183       1.0     0.882840     0.740370     0.463908    Uiso  ? H
   C318       1.0     0.108198     0.701021     0.472903    Uiso  ? C
   C319       1.0     0.134132     0.689226     0.485065    Uiso  ? C
   H184       1.0     0.133505     0.668082     0.488554    Uiso  ? H
   C320       1.0     0.875998     0.683374     0.474501    Uiso  ? C
   C321       1.0     0.303384     0.499875     0.350459    Uiso  ? C
   C322       1.0     0.294891     0.479804     0.326479    Uiso  ? C
   C323       1.0     0.313625     0.477178     0.302446    Uiso  ? C
   H185       1.0     0.330747     0.490605     0.300742    Uiso  ? H
   C324       1.0     0.306476     0.457949     0.282279    Uiso  ? C
   H186       1.0     0.319840     0.452954     0.264036    Uiso  ? H
   C325       1.0     0.280099     0.443787     0.282304    Uiso  ? C
   H187       1.0     0.273295     0.431434     0.264225    Uiso  ? H
   C326       1.0     0.263329     0.446400     0.306127    Uiso  ? C
   C327       1.0     0.269457     0.467415     0.326998    Uiso  ? C
   H188       1.0     0.252988     0.469327     0.344389    Uiso  ? H
   C328       1.0     0.234216     0.431634     0.306632    Uiso  ? C
   C329       1.0     0.327646     0.523372     0.438639    Uiso  ? C
   C330       1.0     0.343093     0.515693     0.464476    Uiso  ? C
   C331       1.0     0.368235     0.499973     0.462660    Uiso  ? C
   H189       1.0     0.377215     0.491851     0.443872    Uiso  ? H
   C332       1.0     0.384635     0.494833     0.486767    Uiso  ? C
   H190       1.0     0.406098     0.484339     0.485415    Uiso  ? H
   C333       1.0     0.374191     0.500662     0.513248    Uiso  ? C
   H191       1.0     0.389207     0.496039     0.531048    Uiso  ? H
   C334       1.0     0.347557     0.512251     0.516726    Uiso  ? C
   C335       1.0     0.332370     0.520848     0.493068    Uiso  ? C
   H192       1.0     0.312968     0.531174     0.498227    Uiso  ? H
   C336       1.0     0.334996     0.511270     0.544551    Uiso  ? C
   C337       1.0     0.265983     0.572200     0.363447    Uiso  ? C
   C338       1.0     0.248946     0.592952     0.347206    Uiso  ? C
   C339       1.0     0.261623     0.614181     0.330659    Uiso  ? C
   H193       1.0     0.284084     0.614444     0.327628    Uiso  ? H
   C340       1.0     0.244818     0.631188     0.312443    Uiso  ? C
   H194       1.0     0.253020     0.648197     0.299538    Uiso  ? H
   C341       1.0     0.214661     0.629791     0.313832    Uiso  ? C
   H195       1.0     0.200891     0.643186     0.301019    Uiso  ? H
   C342       1.0     0.203290     0.605694     0.328961    Uiso  ? C
   C343       1.0     0.219523     0.589257     0.345743    Uiso  ? C
   H196       1.0     0.209473     0.574735     0.358354    Uiso  ? H
   C344       1.0     0.172370     0.600029     0.327140    Uiso  ? C
   C345       1.0     0.322095     0.449751     0.560068    Uiso  ? C
   C346       1.0     0.332839     0.426299     0.541531    Uiso  ? C
   C347       1.0     0.361940     0.425447     0.532833    Uiso  ? C
   H197       1.0     0.375483     0.443049     0.536665    Uiso  ? H
   C348       1.0     0.371658     0.400780     0.519018    Uiso  ? C
   H198       1.0     0.391418     0.397908     0.510383    Uiso  ? H
   C349       1.0     0.352465     0.377902     0.513284    Uiso  ? C
   H199       1.0     0.362974     0.358260     0.509283    Uiso  ? H
   C350       1.0     0.323036     0.382238     0.515722    Uiso  ? C
   C351       1.0     0.313814     0.405665     0.530232    Uiso  ? C
   H200       1.0     0.290671     0.409779     0.532377    Uiso  ? H
   C352       1.0     0.302856     0.364526     0.503484    Uiso  ? C
   C353       1.0     0.296209     0.463456     0.637159    Uiso  ? C
   C354       1.0     0.284368     0.446517     0.659177    Uiso  ? C
   C355       1.0     0.301625     0.434700     0.680643    Uiso  ? C
   H201       1.0     0.324655     0.443187     0.681805    Uiso  ? H
   C356       1.0     0.291025     0.414279     0.698971    Uiso  ? C
   H202       1.0     0.305567     0.406267     0.715660    Uiso  ? H
   C357       1.0     0.263437     0.402478     0.695064    Uiso  ? C
   H203       1.0     0.259264     0.386210     0.709591    Uiso  ? H
   C358       1.0     0.245082     0.413279     0.672841    Uiso  ? C
   C359       1.0     0.256437     0.436089     0.655374    Uiso  ? C
   H204       1.0     0.242952     0.444156     0.639253    Uiso  ? H
   C360       1.0     0.216944     0.401816     0.666254    Uiso  ? C
   C361       1.0     0.138185     0.553099     0.285479    Uiso  ? C
   C362       1.0     0.152949     0.530392     0.267898    Uiso  ? C
   C363       1.0     0.160048     0.535028     0.238492    Uiso  ? C
   H205       1.0     0.154143     0.555725     0.229002    Uiso  ? H
   C364       1.0     0.172381     0.512713     0.223759    Uiso  ? C
   H206       1.0     0.178027     0.512771     0.202040    Uiso  ? H
   C365       1.0     0.178475     0.486347     0.237173    Uiso  ? C
   H207       1.0     0.188210     0.469020     0.224060    Uiso  ? H
   C366       1.0     0.172122     0.482510     0.265333    Uiso  ? C
   C367       1.0     0.158869     0.504017     0.279595    Uiso  ? C
   H208       1.0     0.153269     0.502472     0.300742    Uiso  ? H
   C368       1.0     0.176258     0.454287     0.278565    Uiso  ? C
   C369       1.0     0.878465     0.632888     0.335105    Uiso  ? C
   C370       1.0     0.860218     0.652981     0.348539    Uiso  ? C
   C371       1.0     0.848389     0.676865     0.334495    Uiso  ? C
   H209       1.0     0.851263     0.678502     0.311316    Uiso  ? H
   C372       1.0     0.830545     0.696333     0.349700    Uiso  ? C
   H210       1.0     0.821304     0.714004     0.337305    Uiso  ? H
   C373       1.0     0.828656     0.694137     0.379316    Uiso  ? C
   H211       1.0     0.823635     0.712929     0.392027    Uiso  ? H
   C374       1.0     0.840038     0.671683     0.392699    Uiso  ? C
   C375       1.0     0.852902     0.649524     0.377038    Uiso  ? C
   H212       1.0     0.860898     0.631203     0.386997    Uiso  ? H
   C376       1.0     0.835852     0.666993     0.424479    Uiso  ? C
   C377       1.0     0.824735     0.653371     0.532701    Uiso  ? C
   C378       1.0     0.825123     0.651891     0.563724    Uiso  ? C
   C379       1.0     0.820431     0.674996     0.580935    Uiso  ? C
   H213       1.0     0.816717     0.695222     0.572722    Uiso  ? H
   C380       1.0     0.817427     0.673031     0.610500    Uiso  ? C
   H214       1.0     0.810829     0.692327     0.622810    Uiso  ? H
   C381       1.0     0.824846     0.647754     0.624086    Uiso  ? C
   H215       1.0     0.826306     0.647921     0.646364    Uiso  ? H
   C382       1.0     0.832410     0.623295     0.606931    Uiso  ? C
   C383       1.0     0.830859     0.625616     0.577571    Uiso  ? C
   H216       1.0     0.833203     0.604878     0.565490    Uiso  ? H
   C384       1.0     0.842753     0.596657     0.620678    Uiso  ? C
   O163       1.0     0.248260     0.625469     0.503312    Uiso  ? O
   O164       1.0     0.249319     0.670596     0.495741    Uiso  ? O
   O165       1.0     0.247876     0.621169     0.537313    Uiso  ? O
   O166       1.0     0.237516     0.654452     0.567832    Uiso  ? O
   O167       1.0     0.182383     0.617402     0.553048    Uiso  ? O
   O168       1.0     0.201238     0.657148     0.565806    Uiso  ? O
   O169       1.0     0.185336     0.668226     0.507519    Uiso  ? O
   O170       1.0     0.197054     0.711685     0.521722    Uiso  ? O
   O171       1.0     0.289806     0.497260     0.374694    Uiso  ? O
   O172       1.0     0.316080     0.522147     0.345355    Uiso  ? O
   O173       1.0     0.303352     0.532037     0.440159    Uiso  ? O
   O174       1.0     0.339057     0.523801     0.415161    Uiso  ? O
   O175       1.0     0.291108     0.563603     0.426393    Uiso  ? O
   O176       1.0     0.314401     0.584442     0.391442    Uiso  ? O
   O177       1.0     0.253845     0.559654     0.383426    Uiso  ? O
   O178       1.0     0.293058     0.569737     0.360535    Uiso  ? O
   O179       1.0     0.295728     0.453986     0.561639    Uiso  ? O
   O180       1.0     0.339655     0.464272     0.574341    Uiso  ? O
   O181       1.0     0.279510     0.474405     0.619016    Uiso  ? O
   O182       1.0     0.323521     0.464901     0.635035    Uiso  ? O
   O183       1.0     0.292882     0.533370     0.574733    Uiso  ? O
   O184       1.0     0.308941     0.531723     0.618792    Uiso  ? O
   O185       1.0     0.308085     0.517597     0.548746    Uiso  ? O
   O186       1.0     0.348642     0.499051     0.564193    Uiso  ? O
   O187       1.0     0.141754     0.554315     0.312634    Uiso  ? O
   O188       1.0     0.122123     0.570464     0.274500    Uiso  ? O
   O189       1.0     0.161860     0.575432     0.335773    Uiso  ? O
   O190       1.0     0.155834     0.616345     0.313738    Uiso  ? O
   O191       1.0     0.894217     0.617583     0.350858    Uiso  ? O
   O192       1.0     0.877202     0.628541     0.308614    Uiso  ? O
   O193       1.0     0.883302     0.555034     0.332806    Uiso  ? O
   O194       1.0     0.882282     0.572810     0.290203    Uiso  ? O
   O195       1.0     0.836590     0.641957     0.435055    Uiso  ? O
   O196       1.0     0.829118     0.686685     0.439989    Uiso  ? O
   O197       1.0     0.877547     0.657762     0.479961    Uiso  ? O
   O198       1.0     0.852601     0.694443     0.468753    Uiso  ? O
   O199       1.0     0.824642     0.631440     0.518579    Uiso  ? O
   O200       1.0     0.828080     0.676609     0.520959    Uiso  ? O
   O201       1.0     0.815852     0.618136     0.445112    Uiso  ? O
   O202       1.0     0.786239     0.641800     0.471032    Uiso  ? O
   O203       1.0     0.147570     0.389307     0.333874    Uiso  ? O
   O204       1.0     0.148946     0.376870     0.288156    Uiso  ? O
   O205       1.0     0.211609     0.395850     0.346019    Uiso  ? O
   O206       1.0     0.214716     0.368692     0.308018    Uiso  ? O
   O207       1.0     0.223290     0.426644     0.331761    Uiso  ? O
   O208       1.0     0.222272     0.422912     0.284799    Uiso  ? O
   O209       1.0     0.166099     0.450008     0.303512    Uiso  ? O
   O210       1.0     0.191940     0.434736     0.265719    Uiso  ? O
   O211       1.0     0.187671     0.602786     0.484559    Uiso  ? O
   O212       1.0     0.244957     0.501702     0.424089    Uiso  ? O
   O213       1.0     0.238270     0.493873     0.578868    Uiso  ? O
   O214       1.0     0.114099     0.566138     0.385955    Uiso  ? O
   O215       1.0     0.871409     0.600675     0.489813    Uiso  ? O
   O216       1.0     0.167229     0.447797     0.370389    Uiso  ? O
   Zn37       1.0     0.205117     0.627845     0.516536    Uiso  ? Zn
   Zn38       1.0     0.227620     0.682383     0.533716    Uiso  ? Zn
   Zn39       1.0     0.276684     0.527289     0.404822    Uiso  ? Zn
   Zn40       1.0     0.329662     0.545663     0.376868    Uiso  ? Zn
   Zn41       1.0     0.281282     0.492703     0.578010    Uiso  ? Zn
   Zn42       1.0     0.336703     0.497341     0.607573    Uiso  ? Zn
   Zn43       1.0     0.117806     0.578149     0.345268    Uiso  ? Zn
   Zn44       1.0     0.118136     0.609626     0.290521    Uiso  ? Zn
   Zn45       1.0     0.843889     0.630944     0.478882    Uiso  ? Zn
   Zn46       1.0     0.811618     0.678084     0.480858    Uiso  ? Zn
   Zn47       1.0     0.177182     0.422062     0.335133    Uiso  ? Zn
   Zn48       1.0     0.192930     0.390791     0.278739    Uiso  ? Zn
   H217       1.0     0.251712     0.488496     0.438128    Uiso  ? H
   H218       1.0     0.227264     0.498676     0.415454    Uiso  ? H
   H219       1.0     0.831134     0.447621     0.530151    Uiso  ? H
   H220       1.0     0.801921     0.468280     0.536760    Uiso  ? H
   H221       1.0     0.877602     0.495384     0.592016    Uiso  ? H
   H222       1.0     0.106858     0.519723     0.577327    Uiso  ? H
   H223       1.0     0.150855     0.425063     0.565263    Uiso  ? H
   H224       1.0     0.163187     0.449936     0.583044    Uiso  ? H
   H225       1.0     0.178727     0.463935     0.375849    Uiso  ? H
   H226       1.0     0.146591     0.448908     0.376574    Uiso  ? H
   H227       1.0     0.142273     0.360098     0.461437    Uiso  ? H
   H228       1.0     0.113994     0.380301     0.468616    Uiso  ? H
   H229       1.0     0.234635     0.411848     0.454404    Uiso  ? H
   H230       1.0     0.208871     0.411102     0.482000    Uiso  ? H
   H231       1.0     0.891545     0.563232     0.396419    Uiso  ? H
   H232       1.0     0.133164     0.566583     0.394462    Uiso  ? H
   H233       1.0     0.857045     0.463121     0.420719    Uiso  ? H
   H234       1.0     0.854830     0.496391     0.431870    Uiso  ? H
   H235       1.0     0.870924     0.580968     0.484279    Uiso  ? H
   H236       1.0     0.889266     0.607273     0.499656    Uiso  ? H
   H237       1.0     0.226070     0.500569     0.565426    Uiso  ? H
   H238       1.0     0.229652     0.480552     0.590865    Uiso  ? H
   H239       1.0     0.171870     0.590385     0.486792    Uiso  ? H
   H240       1.0     0.191881     0.607362     0.464470    Uiso  ? H
   C385       1.0     0.605294     0.174778     0.547960    Uiso  ? C
   C386       1.0     0.615611     0.162710     0.575223    Uiso  ? C
   C387       1.0     0.637540     0.176590     0.589498    Uiso  ? C
   H241       1.0     0.646717     0.196342     0.581694    Uiso  ? H
   C388       1.0     0.648148     0.164571     0.614752    Uiso  ? C
   H242       1.0     0.664693     0.175501     0.625767    Uiso  ? H
   C389       1.0     0.632903     0.144832     0.628035    Uiso  ? C
   H243       1.0     0.639878     0.136046     0.647814    Uiso  ? H
   C390       1.0     0.608248     0.132827     0.615275    Uiso  ? C
   C391       1.0     0.600720     0.140633     0.587783    Uiso  ? C
   H244       1.0     0.582854     0.131222     0.575577    Uiso  ? H
   C392       1.0     0.592233     0.108332     0.629105    Uiso  ? C
   C393       1.0     0.609172     0.155058     0.477259    Uiso  ? C
   C394       1.0     0.615910     0.128431     0.460625    Uiso  ? C
   C395       1.0     0.643941     0.123077     0.452314    Uiso  ? C
   H245       1.0     0.657853     0.140190     0.454319    Uiso  ? H
   C396       1.0     0.651351     0.892284     0.439080    Uiso  ? C
   H246       1.0     0.672455     0.890512     0.428608    Uiso  ? H
   C397       1.0     0.631665     0.870339     0.435598    Uiso  ? C
   H247       1.0     0.638805     0.850142     0.425795    Uiso  ? H
   C398       1.0     0.603778     0.874739     0.446253    Uiso  ? C
   C399       1.0     0.596055     0.107127     0.457554    Uiso  ? C
   H248       1.0     0.574465     0.109559     0.464449    Uiso  ? H
   C400       1.0     0.586258     0.849332     0.450712    Uiso  ? C
   C401       1.0     0.558300     0.208631     0.454218    Uiso  ? C
   C402       1.0     0.544824     0.218152     0.426295    Uiso  ? C
   C403       1.0     0.562244     0.232787     0.406064    Uiso  ? C
   H249       1.0     0.583238     0.237069     0.410102    Uiso  ? H
   C404       1.0     0.552174     0.238987     0.379933    Uiso  ? C
   H250       1.0     0.565243     0.249025     0.364834    Uiso  ? H
   C405       1.0     0.521755     0.235636     0.375291    Uiso  ? C
   H251       1.0     0.514966     0.246659     0.357350    Uiso  ? H
   C406       1.0     0.504729     0.220288     0.394339    Uiso  ? C
   C407       1.0     0.517177     0.208214     0.418385    Uiso  ? C
   H252       1.0     0.504422     0.196370     0.435528    Uiso  ? H
   C408       1.0     0.474238     0.215339     0.388523    Uiso  ? C
   C409       1.0     0.572178     0.248353     0.515224    Uiso  ? C
   C410       1.0     0.558253     0.274913     0.523028    Uiso  ? C
   C411       1.0     0.566526     0.301589     0.511158    Uiso  ? C
   H253       1.0     0.586087     0.305183     0.500332    Uiso  ? H
   C412       1.0     0.554447     0.326690     0.517894    Uiso  ? C
   H254       1.0     0.562708     0.348515     0.512576    Uiso  ? H
   C413       1.0     0.526950     0.325849     0.530026    Uiso  ? C
   H255       1.0     0.514303     0.343521     0.529429    Uiso  ? H
   C414       1.0     0.514333     0.300754     0.538212    Uiso  ? C
   C415       1.0     0.530746     0.275495     0.535209    Uiso  ? C
   H256       1.0     0.522671     0.254631     0.543805    Uiso  ? H
   C416       1.0     0.485297     0.298079     0.548663    Uiso  ? C
   C417       1.0     0.517758     0.850155     0.685035    Uiso  ? C
   C418       1.0     0.494136     0.849979     0.707718    Uiso  ? C
   C419       1.0     0.500923     0.860322     0.733527    Uiso  ? C
   H257       1.0     0.520592     0.866471     0.742109    Uiso  ? H
   C420       1.0     0.480651     0.858923     0.754220    Uiso  ? C
   H258       1.0     0.488903     0.867874     0.774904    Uiso  ? H
   C421       1.0     0.454255     0.847134     0.749809    Uiso  ? C
   H259       1.0     0.440928     0.845271     0.768423    Uiso  ? H
   C422       1.0     0.446245     0.836728     0.722828    Uiso  ? C
   C423       1.0     0.467169     0.839140     0.701864    Uiso  ? C
   H260       1.0     0.463541     0.831452     0.680060    Uiso  ? H
   C424       1.0     0.418196     0.826849     0.716929    Uiso  ? C
   C425       1.0     0.569756     0.817147     0.609018    Uiso  ? C
   C426       1.0     0.580972     0.798055     0.587009    Uiso  ? C
   C427       1.0     0.598556     0.775560     0.596193    Uiso  ? C
   H261       1.0     0.603465     0.771271     0.619169    Uiso  ? H
   C428       1.0     0.607250     0.754844     0.576380    Uiso  ? C
   H262       1.0     0.615230     0.735695     0.584483    Uiso  ? H
   C429       1.0     0.599878     0.759757     0.546896    Uiso  ? C
   H263       1.0     0.609829     0.743664     0.534579    Uiso  ? H
   C430       1.0     0.583486     0.782449     0.538070    Uiso  ? C
   C431       1.0     0.573800     0.801200     0.558250    Uiso  ? C
   H264       1.0     0.560320     0.819799     0.552101    Uiso  ? H
   C432       1.0     0.578168     0.788969     0.507676    Uiso  ? C
   C433       1.0     0.548033     0.109346     0.674170    Uiso  ? C
   C434       1.0     0.543362     0.132967     0.693547    Uiso  ? C
   C435       1.0     0.559576     0.135499     0.717756    Uiso  ? C
   H265       1.0     0.579408     0.125745     0.721204    Uiso  ? H
   C436       1.0     0.552092     0.154683     0.739404    Uiso  ? C
   H266       1.0     0.567075     0.156877     0.756212    Uiso  ? H
   C437       1.0     0.527486     0.170497     0.735797    Uiso  ? C
   H267       1.0     0.520316     0.185024     0.753883    Uiso  ? H
   C438       1.0     0.509555     0.166760     0.711652    Uiso  ? C
   C439       1.0     0.518981     0.147116     0.691877    Uiso  ? C
   H268       1.0     0.506139     0.144003     0.673486    Uiso  ? H
   C440       1.0     0.480838     0.178790     0.710802    Uiso  ? C
   C441       1.0     0.536217     0.752945     0.469919    Uiso  ? C
   C442       1.0     0.521675     0.727494     0.477395    Uiso  ? C
   C443       1.0     0.531361     0.699735     0.472838    Uiso  ? C
   H269       1.0     0.547747     0.696270     0.457904    Uiso  ? H
   C444       1.0     0.518313     0.676287     0.484932    Uiso  ? C
   H270       1.0     0.524850     0.653466     0.483560    Uiso  ? H
   C445       1.0     0.494185     0.680621     0.499891    Uiso  ? C
   H271       1.0     0.488477     0.660488     0.510792    Uiso  ? H
   C446       1.0     0.480223     0.707274     0.502765    Uiso  ? C
   C447       1.0     0.494742     0.730767     0.492433    Uiso  ? C
   H272       1.0     0.487228     0.751093     0.498558    Uiso  ? H
   C448       1.0     0.454823     0.710898     0.520317    Uiso  ? C
   C449       1.0     0.533198     0.782326     0.407612    Uiso  ? C
   C450       1.0     0.514286     0.773471     0.384013    Uiso  ? C
   C451       1.0     0.523080     0.751650     0.365929    Uiso  ? C
   H273       1.0     0.541713     0.738475     0.368483    Uiso  ? H
   C452       1.0     0.505727     0.743458     0.343780    Uiso  ? C
   H274       1.0     0.512152     0.726095     0.330099    Uiso  ? H
   C453       1.0     0.479687     0.755423     0.339550    Uiso  ? C
   H275       1.0     0.466387     0.745444     0.323272    Uiso  ? H
   C454       1.0     0.471287     0.778333     0.356913    Uiso  ? C
   C455       1.0     0.488422     0.788159     0.378443    Uiso  ? C
   H276       1.0     0.481855     0.807805     0.387756    Uiso  ? H
   C456       1.0     0.443416     0.790007     0.352184    Uiso  ? C
   C457       1.0     0.395102     0.158519     0.747467    Uiso  ? C
   C458       1.0     0.370731     0.140425     0.754025    Uiso  ? C
   C459       1.0     0.344649     0.150826     0.764258    Uiso  ? C
   H277       1.0     0.342021     0.173731     0.769574    Uiso  ? H
   C460       1.0     0.320228     0.133367     0.763323    Uiso  ? C
   H278       1.0     0.299658     0.143096     0.764606    Uiso  ? H
   C461       1.0     0.322960     0.104900     0.755172    Uiso  ? C
   H279       1.0     0.304550     0.883910     0.754218    Uiso  ? H
   C462       1.0     0.347824     0.888314     0.745521    Uiso  ? C
   C463       1.0     0.373105     0.111878     0.745863    Uiso  ? C
   H280       1.0     0.394097     0.102820     0.737368    Uiso  ? H
   C464       1.0     0.352247     0.859582     0.732879    Uiso  ? C
   C465       1.0     0.426066     0.251100     0.712135    Uiso  ? C
   C466       1.0     0.429440     0.280519     0.697864    Uiso  ? C
   C467       1.0     0.422848     0.305826     0.713850    Uiso  ? C
   H281       1.0     0.416727     0.306381     0.737226    Uiso  ? H
   C468       1.0     0.419951     0.331196     0.697930    Uiso  ? C
   H282       1.0     0.413982     0.349435     0.708277    Uiso  ? H
   C469       1.0     0.429573     0.333536     0.668899    Uiso  ? C
   H283       1.0     0.432948     0.353765     0.657979    Uiso  ? H
   C470       1.0     0.435953     0.309266     0.655834    Uiso  ? C
   C471       1.0     0.438134     0.283503     0.669749    Uiso  ? C
   H284       1.0     0.442252     0.262541     0.658458    Uiso  ? H
   C472       1.0     0.438647     0.308420     0.624777    Uiso  ? C
   C473       1.0     0.427549     0.291659     0.515554    Uiso  ? C
   C474       1.0     0.419936     0.289808     0.485300    Uiso  ? C
   C475       1.0     0.410101     0.315026     0.471214    Uiso  ? C
   H285       1.0     0.401948     0.331690     0.482768    Uiso  ? H
   C476       1.0     0.404756     0.315357     0.442974    Uiso  ? C
   H286       1.0     0.397272     0.334907     0.433285    Uiso  ? H
   C477       1.0     0.410966     0.291750     0.427065    Uiso  ? C
   H287       1.0     0.406606     0.291496     0.405583    Uiso  ? H
   C478       1.0     0.418387     0.266117     0.440161    Uiso  ? C
   C479       1.0     0.424637     0.265080     0.469728    Uiso  ? C
   H288       1.0     0.430955     0.246252     0.480856    Uiso  ? H
   C480       1.0     0.419287     0.241030     0.422429    Uiso  ? C
   O217       1.0     0.589429     0.160241     0.532438    Uiso  ? O
   O218       1.0     0.614308     0.198992     0.539765    Uiso  ? O
   O219       1.0     0.590580     0.154600     0.497856    Uiso  ? O
   O220       1.0     0.621805     0.177241     0.469673    Uiso  ? O
   O221       1.0     0.547543     0.189676     0.470426    Uiso  ? O
   O222       1.0     0.579056     0.223080     0.465254    Uiso  ? O
   O223       1.0     0.570438     0.227143     0.531179    Uiso  ? O
   O224       1.0     0.583039     0.244538     0.491858    Uiso  ? O
   O225       1.0     0.509738     0.849479     0.659656    Uiso  ? O
   O226       1.0     0.544108     0.853476     0.691222    Uiso  ? O
   O227       1.0     0.549211     0.832241     0.602395    Uiso  ? O
   O228       1.0     0.583577     0.821264     0.631831    Uiso  ? O
   O229       1.0     0.565307     0.105885     0.622439    Uiso  ? O
   O230       1.0     0.603106     0.884631     0.644993    Uiso  ? O
   O231       1.0     0.541700     0.110946     0.647108    Uiso  ? O
   O232       1.0     0.560294     0.882816     0.682964    Uiso  ? O
   O233       1.0     0.530803     0.776001     0.483274    Uiso  ? O
   O234       1.0     0.553603     0.752526     0.449122    Uiso  ? O
   O235       1.0     0.527185     0.806158     0.420795    Uiso  ? O
   O236       1.0     0.554415     0.765770     0.415670    Uiso  ? O
   O237       1.0     0.564139     0.850839     0.465315    Uiso  ? O
   O238       1.0     0.594997     0.825890     0.441897    Uiso  ? O
   O239       1.0     0.554828     0.802489     0.500355    Uiso  ? O
   O240       1.0     0.593308     0.778596     0.488149    Uiso  ? O
   O241       1.0     0.412520     0.151211     0.728669    Uiso  ? O
   O242       1.0     0.392164     0.184570     0.751662    Uiso  ? O
   O243       1.0     0.466099     0.174388     0.688918    Uiso  ? O
   O244       1.0     0.468216     0.190658     0.731819    Uiso  ? O
   O245       1.0     0.425544     0.228307     0.696823    Uiso  ? O
   O246       1.0     0.430767     0.248781     0.737711    Uiso  ? O
   O247       1.0     0.393012     0.205000     0.683261    Uiso  ? O
   O248       1.0     0.384576     0.206819     0.729087    Uiso  ? O
   O249       1.0     0.451835     0.289094     0.612376    Uiso  ? O
   O250       1.0     0.426121     0.326247     0.610038    Uiso  ? O
   O251       1.0     0.470755     0.274635     0.548687    Uiso  ? O
   O252       1.0     0.473774     0.320766     0.555628    Uiso  ? O
   O253       1.0     0.441858     0.271884     0.529198    Uiso  ? O
   O254       1.0     0.417085     0.312229     0.530461    Uiso  ? O
   O255       1.0     0.392507     0.277089     0.574057    Uiso  ? O
   O256       1.0     0.390557     0.317388     0.552120    Uiso  ? O
   O257       1.0     0.330802     0.799920     0.671991    Uiso  ? O
   O258       1.0     0.321245     0.803869     0.718086    Uiso  ? O
   O259       1.0     0.362434     0.785929     0.667568    Uiso  ? O
   O260       1.0     0.381755     0.769475     0.706688    Uiso  ? O
   O261       1.0     0.408404     0.826217     0.691094    Uiso  ? O
   O262       1.0     0.400854     0.823247     0.737109    Uiso  ? O
   O263       1.0     0.344040     0.854640     0.706813    Uiso  ? O
   O264       1.0     0.370628     0.841738     0.744699    Uiso  ? O
   O265       1.0     0.522595     0.179723     0.533339    Uiso  ? O
   O266       1.0     0.499638     0.867609     0.598834    Uiso  ? O
   O267       1.0     0.498460     0.838654     0.467274    Uiso  ? O
   O268       1.0     0.443573     0.154393     0.666540    Uiso  ? O
   O269       1.0     0.448068     0.226982     0.587317    Uiso  ? O
   O270       1.0     0.378341     0.851002     0.647479    Uiso  ? O
   Zn49       1.0     0.562155     0.188227     0.512648    Uiso  ? Zn
   Zn50       1.0     0.613176     0.212535     0.496067    Uiso  ? Zn
   Zn51       1.0     0.532035     0.864538     0.625943    Uiso  ? Zn
   Zn52       1.0     0.583287     0.849532     0.665166    Uiso  ? Zn
   Zn53       1.0     0.537806     0.816789     0.462624    Uiso  ? Zn
   Zn54       1.0     0.589773     0.781393     0.444794    Uiso  ? Zn
   Zn55       1.0     0.428181     0.183347     0.699649    Uiso  ? Zn
   Zn56       1.0     0.428590     0.208862     0.750377    Uiso  ? Zn
   Zn57       1.0     0.437657     0.267958     0.575651    Uiso  ? Zn
   Zn58       1.0     0.432712     0.330336     0.567035    Uiso  ? Zn
   Zn59       1.0     0.366234     0.826885     0.680825    Uiso  ? Zn
   Zn60       1.0     0.362561     0.799416     0.734352    Uiso  ? Zn
   C481       1.0     0.192836     0.830536     0.531379    Uiso  ? C
   C482       1.0     0.178892     0.843334     0.507689    Uiso  ? C
   C483       1.0     0.150128     0.843241     0.502129    Uiso  ? C
   H289       1.0     0.136392     0.833266     0.517032    Uiso  ? H
   C484       1.0     0.139435     0.859103     0.480618    Uiso  ? C
   H290       1.0     0.116054     0.861062     0.478346    Uiso  ? H
   C485       1.0     0.156777     0.875067     0.461575    Uiso  ? C
   H291       1.0     0.146146     0.887704     0.446197    Uiso  ? H
   C486       1.0     0.185908     0.872842     0.464470    Uiso  ? C
   C487       1.0     0.197039     0.860867     0.490228    Uiso  ? C
   H292       1.0     0.220782     0.861002     0.493433    Uiso  ? H
   C488       1.0     0.204629     0.884270     0.442560    Uiso  ? C
   C489       1.0     0.205445     0.849972     0.594489    Uiso  ? C
   C490       1.0     0.194780     0.877651     0.602726    Uiso  ? C
   C491       1.0     0.166817     0.880080     0.611702    Uiso  ? C
   H293       1.0     0.154052     0.860750     0.612732    Uiso  ? H
   C492       1.0     0.157076     0.112429     0.619279    Uiso  ? C
   H294       1.0     0.135673     0.116041     0.628738    Uiso  ? H
   C493       1.0     0.175007     0.136017     0.618486    Uiso  ? C
   H295       1.0     0.164181     0.157754     0.617878    Uiso  ? H
   C494       1.0     0.202550     0.133611     0.609438    Uiso  ? C
   C495       1.0     0.213139     0.105676     0.603925    Uiso  ? C
   H296       1.0     0.232741     0.895928     0.593913    Uiso  ? H
   C496       1.0     0.220867     0.158837     0.605693    Uiso  ? C
   C497       1.0     0.234337     0.796020     0.621146    Uiso  ? C
   C498       1.0     0.245000     0.790175     0.651313    Uiso  ? C
   C499       1.0     0.226901     0.781696     0.672553    Uiso  ? C
   H297       1.0     0.203926     0.778545     0.668257    Uiso  ? H
   C500       1.0     0.236575     0.775249     0.700126    Uiso  ? C
   H298       1.0     0.222344     0.768621     0.715255    Uiso  ? H
   C501       1.0     0.265589     0.780365     0.707192    Uiso  ? C
   H299       1.0     0.273285     0.779725     0.728938    Uiso  ? H
   C502       1.0     0.283785     0.790058     0.685395    Uiso  ? C
   C503       1.0     0.272710     0.796012     0.658424    Uiso  ? C
   H300       1.0     0.286627     0.805435     0.644344    Uiso  ? H
   C504       1.0     0.313049     0.797871     0.692504    Uiso  ? C
   C505       1.0     0.256928     0.772521     0.541961    Uiso  ? C
   C506       1.0     0.275288     0.759668     0.521012    Uiso  ? C
   C507       1.0     0.265627     0.747231     0.494652    Uiso  ? C
   H301       1.0     0.242842     0.748706     0.489558    Uiso  ? H
   C508       1.0     0.284823     0.734351     0.475506    Uiso  ? C
   H302       1.0     0.275735     0.730413     0.453285    Uiso  ? H
   C509       1.0     0.314401     0.730498     0.483755    Uiso  ? C
   H303       1.0     0.328848     0.720131     0.469616    Uiso  ? H
   C510       1.0     0.322178     0.740046     0.509649    Uiso  ? C
   C511       1.0     0.303647     0.752973     0.528401    Uiso  ? C
   H304       1.0     0.312171     0.757212     0.547883    Uiso  ? H
   C512       1.0     0.352029     0.733759     0.519054    Uiso  ? C
   C513       1.0     0.273308     0.149785     0.383504    Uiso  ? C
   C514       1.0     0.293414     0.164244     0.365041    Uiso  ? C
   C515       1.0     0.283624     0.177224     0.340737    Uiso  ? C
   H305       1.0     0.261909     0.173312     0.333166    Uiso  ? H
   C516       1.0     0.303901     0.189068     0.323469    Uiso  ? C
   H306       1.0     0.295389     0.198330     0.305085    Uiso  ? H
   C517       1.0     0.332381     0.191327     0.329970    Uiso  ? C
   H307       1.0     0.347018     0.204220     0.315867    Uiso  ? H
   C518       1.0     0.342093     0.183655     0.356218    Uiso  ? C
   C519       1.0     0.322652     0.168634     0.374140    Uiso  ? C
   H308       1.0     0.328235     0.165794     0.397228    Uiso  ? H
   C520       1.0     0.371372     0.191048     0.363689    Uiso  ? C
   C521       1.0     0.218675     0.160970     0.448226    Uiso  ? C
   C522       1.0     0.207497     0.177163     0.473228    Uiso  ? C
   C523       1.0     0.180439     0.187898     0.471085    Uiso  ? C
   H309       1.0     0.168329     0.183140     0.453067    Uiso  ? H
   C524       1.0     0.170620     0.204523     0.494253    Uiso  ? C
   H310       1.0     0.148918     0.211736     0.491858    Uiso  ? H
   C525       1.0     0.186802     0.211834     0.517511    Uiso  ? C
   H311       1.0     0.177521     0.222991     0.535300    Uiso  ? H
   C526       1.0     0.212966     0.198294     0.519893    Uiso  ? C
   C527       1.0     0.223199     0.179825     0.498456    Uiso  ? C
   H312       1.0     0.242537     0.167070     0.501555    Uiso  ? H
   C528       1.0     0.228620     0.201298     0.547461    Uiso  ? C
   C529       1.0     0.254400     0.874082     0.382345    Uiso  ? C
   C530       1.0     0.266218     0.850572     0.361788    Uiso  ? C
   C531       1.0     0.247969     0.836299     0.342858    Uiso  ? C
   H313       1.0     0.226395     0.843018     0.339772    Uiso  ? H
   C532       1.0     0.259631     0.818114     0.322217    Uiso  ? C
   H314       1.0     0.248650     0.812251     0.304317    Uiso  ? H
   C533       1.0     0.288638     0.809568     0.323552    Uiso  ? C
   H315       1.0     0.295756     0.793833     0.309133    Uiso  ? H
   C534       1.0     0.306423     0.822777     0.342901    Uiso  ? C
   C535       1.0     0.295906     0.843677     0.361538    Uiso  ? C
   H316       1.0     0.311143     0.857543     0.370567    Uiso  ? H
   C536       1.0     0.337082     0.813447     0.344272    Uiso  ? C
   C537       1.0     0.286233     0.243450     0.582590    Uiso  ? C
   C538       1.0     0.302441     0.270794     0.575992    Uiso  ? C
   C539       1.0     0.288840     0.297138     0.574316    Uiso  ? C
   H317       1.0     0.265930     0.299323     0.581371    Uiso  ? H
   C540       1.0     0.302901     0.321809     0.564420    Uiso  ? C
   H318       1.0     0.290071     0.341351     0.561798    Uiso  ? H
   C541       1.0     0.332438     0.320866     0.560465    Uiso  ? C
   H319       1.0     0.344731     0.339975     0.553369    Uiso  ? H
   C542       1.0     0.348182     0.295701     0.565422    Uiso  ? C
   C543       1.0     0.333551     0.271265     0.571486    Uiso  ? C
   H320       1.0     0.344170     0.253493     0.575375    Uiso  ? H
   C544       1.0     0.377851     0.297704     0.564367    Uiso  ? C
   C545       1.0     0.288132     0.205490     0.639717    Uiso  ? C
   C546       1.0     0.302451     0.213771     0.666964    Uiso  ? C
   C547       1.0     0.286036     0.224373     0.690806    Uiso  ? C
   H321       1.0     0.263153     0.227749     0.689155    Uiso  ? H
   C548       1.0     0.299810     0.231696     0.715446    Uiso  ? C
   H322       1.0     0.287515     0.243993     0.731062    Uiso  ? H
   C549       1.0     0.327758     0.223485     0.719844    Uiso  ? C
   H323       1.0     0.337023     0.225026     0.739148    Uiso  ? H
   C550       1.0     0.344233     0.212995     0.696648    Uiso  ? C
   C551       1.0     0.331359     0.209222     0.670287    Uiso  ? C
   H324       1.0     0.344019     0.201834     0.653348    Uiso  ? H
   C552       1.0     0.375172     0.207815     0.703017    Uiso  ? C
   C553       1.0     0.414858     0.851382     0.334508    Uiso  ? C
   C554       1.0     0.422428     0.879779     0.323651    Uiso  ? C
   C555       1.0     0.425311     0.883902     0.294002    Uiso  ? C
   H325       1.0     0.418539     0.867683     0.277228    Uiso  ? H
   C556       1.0     0.436364     0.115662     0.283957    Uiso  ? C
   H326       1.0     0.440063     0.118865     0.262139    Uiso  ? H
   C557       1.0     0.436981     0.139493     0.301946    Uiso  ? C
   H327       1.0     0.443149     0.161542     0.294294    Uiso  ? H
   C558       1.0     0.433346     0.135915     0.331453    Uiso  ? C
   C559       1.0     0.427337     0.108744     0.341644    Uiso  ? C
   H328       1.0     0.421831     0.106124     0.363562    Uiso  ? H
   C560       1.0     0.434423     0.160113     0.350353    Uiso  ? C
   C561       1.0     0.394129     0.757678     0.384416    Uiso  ? C
   C562       1.0     0.395835     0.731879     0.402071    Uiso  ? C
   C563       1.0     0.395146     0.704565     0.389028    Uiso  ? C
   H329       1.0     0.387374     0.705163     0.366622    Uiso  ? H
   C564       1.0     0.398289     0.680206     0.404515    Uiso  ? C
   H330       1.0     0.395765     0.659767     0.394081    Uiso  ? H
   C565       1.0     0.401734     0.682120     0.434345    Uiso  ? C
   H331       1.0     0.404892     0.663159     0.446812    Uiso  ? H
   C566       1.0     0.401914     0.709180     0.448020    Uiso  ? C
   C567       1.0     0.400203     0.733728     0.431431    Uiso  ? C
   H332       1.0     0.402454     0.754334     0.440373    Uiso  ? H
   C568       1.0     0.403592     0.710814     0.481057    Uiso  ? C
   C569       1.0     0.401517     0.714258     0.591344    Uiso  ? C
   C570       1.0     0.395879     0.714292     0.622437    Uiso  ? C
   C571       1.0     0.399871     0.689523     0.639200    Uiso  ? C
   H333       1.0     0.407331     0.669492     0.629550    Uiso  ? H
   C572       1.0     0.399432     0.690941     0.667570    Uiso  ? C
   H334       1.0     0.404917     0.673400     0.680864    Uiso  ? H
   C573       1.0     0.390129     0.715962     0.680452    Uiso  ? C
   H335       1.0     0.390723     0.717649     0.703029    Uiso  ? H
   C574       1.0     0.383292     0.739438     0.665251    Uiso  ? C
   C575       1.0     0.387073     0.738766     0.635332    Uiso  ? C
   H336       1.0     0.384763     0.757038     0.621613    Uiso  ? H
   C576       1.0     0.377166     0.766947     0.679952    Uiso  ? C
   O271       1.0     0.219500     0.826312     0.531243    Uiso  ? O
   O272       1.0     0.179051     0.823423     0.553068    Uiso  ? O
   O273       1.0     0.231874     0.846575     0.591747    Uiso  ? O
   O274       1.0     0.187606     0.832648     0.583440    Uiso  ? O
   O275       1.0     0.247692     0.813462     0.605161    Uiso  ? O
   O276       1.0     0.212898     0.783339     0.611498    Uiso  ? O
   O277       1.0     0.268821     0.785147     0.561919    Uiso  ? O
   O278       1.0     0.230507     0.776201     0.538201    Uiso  ? O
   O279       1.0     0.281263     0.128855     0.398784    Uiso  ? O
   O280       1.0     0.248010     0.155143     0.380766    Uiso  ? O
   O281       1.0     0.244606     0.150707     0.449860    Uiso  ? O
   O282       1.0     0.201471     0.148151     0.432351    Uiso  ? O
   O283       1.0     0.231104     0.878694     0.444614    Uiso  ? O
   O284       1.0     0.198050     0.112992     0.429754    Uiso  ? O
   O285       1.0     0.271142     0.887481     0.397938    Uiso  ? O
   O286       1.0     0.228591     0.881935     0.382093    Uiso  ? O
   O287       1.0     0.297897     0.219795     0.589099    Uiso  ? O
   O288       1.0     0.259061     0.244703     0.580697    Uiso  ? O
   O289       1.0     0.300518     0.204545     0.615010    Uiso  ? O
   O290       1.0     0.261365     0.204142     0.639747    Uiso  ? O
   O291       1.0     0.248845     0.156837     0.606782    Uiso  ? O
   O292       1.0     0.209305     0.181616     0.597736    Uiso  ? O
   O293       1.0     0.254476     0.195111     0.549725    Uiso  ? O
   O294       1.0     0.212817     0.202673     0.570164    Uiso  ? O
   O295       1.0     0.426466     0.842847     0.357044    Uiso  ? O
   O296       1.0     0.398289     0.835390     0.320752    Uiso  ? O
   O297       1.0     0.354492     0.828222     0.359683    Uiso  ? O
   O298       1.0     0.343903     0.789308     0.334332    Uiso  ? O
   O299       1.0     0.391977     0.780507     0.398377    Uiso  ? O
   O300       1.0     0.398713     0.757579     0.357413    Uiso  ? O
   O301       1.0     0.436144     0.811755     0.365974    Uiso  ? O
   O302       1.0     0.423855     0.772947     0.341932    Uiso  ? O
   O303       1.0     0.399029     0.734698     0.493249    Uiso  ? O
   O304       1.0     0.409730     0.689080     0.495540    Uiso  ? O
   O305       1.0     0.371109     0.751864     0.512525    Uiso  ? O
   O306       1.0     0.358415     0.710135     0.529696    Uiso  ? O
   O307       1.0     0.393730     0.735485     0.577215    Uiso  ? O
   O308       1.0     0.411952     0.692100     0.579121    Uiso  ? O
   O309       1.0     0.447237     0.734925     0.529704    Uiso  ? O
   O310       1.0     0.436511     0.690685     0.520762    Uiso  ? O
   O311       1.0     0.458613     0.205426     0.408975    Uiso  ? O
   O312       1.0     0.462655     0.222054     0.364863    Uiso  ? O
   O313       1.0     0.433134     0.218837     0.428218    Uiso  ? O
   O314       1.0     0.406731     0.242189     0.398174    Uiso  ? O
   O315       1.0     0.378417     0.189555     0.388839    Uiso  ? O
   O316       1.0     0.390507     0.194335     0.345438    Uiso  ? O
   O317       1.0     0.443179     0.157034     0.375296    Uiso  ? O
   O318       1.0     0.419370     0.181966     0.344175    Uiso  ? O
   O319       1.0     0.281216     0.852872     0.548886    Uiso  ? O
   O320       1.0     0.292102     0.107662     0.469063    Uiso  ? O
   O321       1.0     0.300991     0.152723     0.561853    Uiso  ? O
   O322       1.0     0.390988     0.845515     0.416575    Uiso  ? O
   O323       1.0     0.420536     0.789509     0.543801    Uiso  ? O
   O324       1.0     0.410818     0.149662     0.432548    Uiso  ? O
   Zn61       1.0     0.248868     0.821253     0.562046    Uiso  ? Zn
   Zn62       1.0     0.199786     0.789002     0.569644    Uiso  ? Zn
   Zn63       1.0     0.261426     0.114615     0.436600    Uiso  ? Zn
   Zn64       1.0     0.215638     0.129541     0.392803    Uiso  ? Zn
   Zn65       1.0     0.276907     0.179227     0.584394    Uiso  ? Zn
   Zn66       1.0     0.236539     0.216706     0.605824    Uiso  ? Zn
   Zn67       1.0     0.395441     0.821355     0.381243    Uiso  ? Zn
   Zn68       1.0     0.387497     0.790609     0.327411    Uiso  ? Zn
   Zn69       1.0     0.408033     0.748126     0.537430    Uiso  ? Zn
   Zn70       1.0     0.395155     0.686232     0.539106    Uiso  ? Zn
   Zn71       1.0     0.420341     0.181951     0.404066    Uiso  ? Zn
   Zn72       1.0     0.420538     0.224252     0.359988    Uiso  ? Zn
   H337       1.0     0.295417     0.123961     0.480620    Uiso  ? H
   H338       1.0     0.300156     0.882515     0.469677    Uiso  ? H
   H339       1.0     0.481275     0.874997     0.603275    Uiso  ? H
   H340       1.0     0.500429     0.854994     0.583141    Uiso  ? H
   H341       1.0     0.365831     0.854243     0.631922    Uiso  ? H
   H342       1.0     0.397918     0.858166     0.647627    Uiso  ? H
   H343       1.0     0.442939     0.133079     0.669944    Uiso  ? H
   H344       1.0     0.443558     0.159420     0.646318    Uiso  ? H
   H345       1.0     0.392204     0.151553     0.440492    Uiso  ? H
   H346       1.0     0.424523     0.135455     0.437459    Uiso  ? H
   H347       1.0     0.523283     0.178767     0.553036    Uiso  ? H
   H348       1.0     0.507131     0.186410     0.521906    Uiso  ? H
   H349       1.0     0.465048     0.221355     0.576804    Uiso  ? H
   H350       1.0     0.438022     0.214335     0.602340    Uiso  ? H
   H351       1.0     0.384544     0.866320     0.413311    Uiso  ? H
   H352       1.0     0.397452     0.840945     0.434012    Uiso  ? H
   H353       1.0     0.497343     0.851072     0.483700    Uiso  ? H
   H354       1.0     0.485264     0.840611     0.452848    Uiso  ? H
   H355       1.0     0.419133     0.799000     0.560717    Uiso  ? H
   H356       1.0     0.438577     0.792506     0.534439    Uiso  ? H
   H357       1.0     0.318469     0.149639     0.571687    Uiso  ? H
   H358       1.0     0.292752     0.136438     0.551677    Uiso  ? H
   H359       1.0     0.277002     0.871911     0.543559    Uiso  ? H
   H360       1.0     0.301012     0.847675     0.549422    Uiso  ? H
   C577       1.0     0.456546     0.359837     0.115356    Uiso  ? C
   C578       1.0     0.472351     0.343078     0.136206    Uiso  ? C
   C579       1.0     0.458096     0.324566     0.153891    Uiso  ? C
   H361       1.0     0.435141     0.327674     0.156242    Uiso  ? H
   C580       1.0     0.471737     0.309507     0.175629    Uiso  ? C
   H362       1.0     0.459446     0.295145     0.190213    Uiso  ? H
   C581       1.0     0.501137     0.310007     0.175188    Uiso  ? C
   H363       1.0     0.512499     0.294645     0.187784    Uiso  ? H
   C582       1.0     0.516340     0.330090     0.159455    Uiso  ? C
   C583       1.0     0.500863     0.349091     0.141857    Uiso  ? C
   H364       1.0     0.511321     0.362726     0.128396    Uiso  ? H
   C584       1.0     0.547124     0.331648     0.161888    Uiso  ? C
   C585       1.0     0.403079     0.409928     0.139163    Uiso  ? C
   C586       1.0     0.401634     0.428486     0.164650    Uiso  ? C
   C587       1.0     0.377126     0.432458     0.181239    Uiso  ? C
   H365       1.0     0.358400     0.417520     0.177755    Uiso  ? H
   C588       1.0     0.376471     0.452064     0.204806    Uiso  ? C
   H366       1.0     0.358862     0.457320     0.218261    Uiso  ? H
   C589       1.0     0.401897     0.464810     0.213952    Uiso  ? C
   H367       1.0     0.403484     0.477226     0.233990    Uiso  ? H
   C590       1.0     0.424230     0.464957     0.195357    Uiso  ? C
   C591       1.0     0.425065     0.446313     0.171576    Uiso  ? C
   H368       1.0     0.444758     0.444215     0.159230    Uiso  ? H
   C592       1.0     0.451186     0.477722     0.204011    Uiso  ? C
   C593       1.0     0.381867     0.432804     0.883419    Uiso  ? C
   C594       1.0     0.362838     0.456597     0.882423    Uiso  ? C
   C595       1.0     0.331607     0.452547     0.884682    Uiso  ? C
   H369       1.0     0.322922     0.431388     0.882431    Uiso  ? H
   C596       1.0     0.315079     0.476463     0.879464    Uiso  ? C
   H370       1.0     0.291178     0.474988     0.880210    Uiso  ? H
   C597       1.0     0.327260     0.502569     0.871268    Uiso  ? C
   H371       1.0     0.314011     0.519388     0.865641    Uiso  ? H
   C598       1.0     0.356018     0.507260     0.869127    Uiso  ? C
   C599       1.0     0.374398     0.483197     0.876149    Uiso  ? C
   H372       1.0     0.397558     0.483994     0.874788    Uiso  ? H
   C600       1.0     0.368601     0.534017     0.861334    Uiso  ? C
   C601       1.0     0.405532     0.384133     0.836934    Uiso  ? C
   C602       1.0     0.396308     0.388448     0.807632    Uiso  ? C
   C603       1.0     0.369350     0.376689     0.800525    Uiso  ? C
   H373       1.0     0.355984     0.365611     0.812006    Uiso  ? H
   C604       1.0     0.362268     0.375598     0.771517    Uiso  ? C
   H374       1.0     0.343042     0.365221     0.763520    Uiso  ? H
   C605       1.0     0.378792     0.389909     0.750087    Uiso  ? C
   H375       1.0     0.371446     0.389464     0.729653    Uiso  ? H
   C606       1.0     0.403469     0.403815     0.759377    Uiso  ? C
   C607       1.0     0.412899     0.401602     0.787729    Uiso  ? C
   H376       1.0     0.430646     0.412202     0.794944    Uiso  ? H
   C608       1.0     0.422117     0.420156     0.739313    Uiso  ? C
   C609       1.0     0.658727     0.332057     0.152210    Uiso  ? C
   C610       1.0     0.689027     0.332031     0.142261    Uiso  ? C
   C611       1.0     0.703578     0.307604     0.136757    Uiso  ? C
   H377       1.0     0.696202     0.286061     0.138311    Uiso  ? H
   C612       1.0     0.730175     0.309533     0.124945    Uiso  ? C
   H378       1.0     0.741682     0.291282     0.118222    Uiso  ? H
   C613       1.0     0.742572     0.336658     0.118714    Uiso  ? C
   H379       1.0     0.764283     0.337979     0.109638    Uiso  ? H
   C614       1.0     0.727327     0.361276     0.121615    Uiso  ? C
   C615       1.0     0.700964     0.358421     0.134334    Uiso  ? C
   H380       1.0     0.686558     0.375195     0.137410    Uiso  ? H
   C616       1.0     0.737536     0.387658     0.107564    Uiso  ? C
   C617       1.0     0.588615     0.366611     0.201498    Uiso  ? C
   C618       1.0     0.579027     0.383766     0.224884    Uiso  ? C
   C619       1.0     0.581807     0.376908     0.254214    Uiso  ? C
   H381       1.0     0.588700     0.355386     0.258587    Uiso  ? H
   C620       1.0     0.565519     0.389557     0.274854    Uiso  ? C
   H382       1.0     0.564381     0.382081     0.297215    Uiso  ? H
   C621       1.0     0.550606     0.413469     0.267864    Uiso  ? C
   H383       1.0     0.537806     0.423582     0.285519    Uiso  ? H
   C622       1.0     0.548599     0.423003     0.239149    Uiso  ? C
   C623       1.0     0.561606     0.407834     0.218524    Uiso  ? C
   H384       1.0     0.555892     0.413834     0.197197    Uiso  ? H
   C624       1.0     0.529540     0.447655     0.233369    Uiso  ? C
   C625       1.0     0.586646     0.301987     0.117961    Uiso  ? C
   C626       1.0     0.573955     0.285953     0.895028    Uiso  ? C
   C627       1.0     0.559252     0.259391     0.898226    Uiso  ? C
   H385       1.0     0.554457     0.254084     0.119549    Uiso  ? H
   C628       1.0     0.545691     0.247304     0.874375    Uiso  ? C
   H386       1.0     0.530483     0.230367     0.875405    Uiso  ? H
   C629       1.0     0.548366     0.259044     0.847286    Uiso  ? C
   H387       1.0     0.540252     0.249406     0.827811    Uiso  ? H
   C630       1.0     0.564090     0.284236     0.843750    Uiso  ? C
   C631       1.0     0.578817     0.295879     0.867868    Uiso  ? C
   H388       1.0     0.591824     0.315344     0.866077    Uiso  ? H
   C632       1.0     0.570390     0.297513     0.816799    Uiso  ? C
   C633       1.0     0.545445     0.510755     0.251577    Uiso  ? C
   C634       1.0     0.572806     0.521342     0.262682    Uiso  ? C
   C635       1.0     0.578889     0.518663     0.291759    Uiso  ? C
   H389       1.0     0.563160     0.512156     0.305756    Uiso  ? H
   C636       1.0     0.606510     0.521626     0.303446    Uiso  ? C
   H390       1.0     0.608958     0.518604     0.325574    Uiso  ? H
   C637       1.0     0.628237     0.529332     0.285256    Uiso  ? C
   H391       1.0     0.647232     0.534097     0.295494    Uiso  ? H
   C638       1.0     0.622879     0.535723     0.256866    Uiso  ? C
   C639       1.0     0.595629     0.530081     0.245172    Uiso  ? C
   H392       1.0     0.592903     0.530717     0.221860    Uiso  ? H
   C640       1.0     0.646128     0.544472     0.236241    Uiso  ? C
   C641       1.0     0.490054     0.549144     0.241859    Uiso  ? C
   C642       1.0     0.489373     0.579467     0.246567    Uiso  ? C
   C643       1.0     0.479064     0.590593     0.272556    Uiso  ? C
   H393       1.0     0.473055     0.578266     0.291030    Uiso  ? H
   C644       1.0     0.475336     0.620035     0.276314    Uiso  ? C
   H394       1.0     0.464694     0.627508     0.296189    Uiso  ? H
   C645       1.0     0.480490     0.638456     0.253229    Uiso  ? C
   H395       1.0     0.474929     0.660884     0.258097    Uiso  ? H
   C646       1.0     0.493992     0.629838     0.228186    Uiso  ? C
   C647       1.0     0.497112     0.598880     0.223623    Uiso  ? C
   H396       1.0     0.509382     0.591900     0.205031    Uiso  ? H
   C648       1.0     0.504235     0.649725     0.206381    Uiso  ? C
   C649       1.0     0.641033     0.329876     0.794094    Uiso  ? C
   C650       1.0     0.666906     0.331679     0.811856    Uiso  ? C
   C651       1.0     0.679782     0.306249     0.821156    Uiso  ? C
   H397       1.0     0.670111     0.286042     0.816644    Uiso  ? H
   C652       1.0     0.707009     0.306639     0.832135    Uiso  ? C
   H398       1.0     0.715659     0.288543     0.840009    Uiso  ? H
   C653       1.0     0.720608     0.332773     0.837457    Uiso  ? C
   H399       1.0     0.740943     0.333604     0.847966    Uiso  ? H
   C654       1.0     0.706174     0.358697     0.832002    Uiso  ? C
   C655       1.0     0.678781     0.357919     0.820900    Uiso  ? C
   H400       1.0     0.668540     0.377556     0.816485    Uiso  ? H
   C656       1.0     0.718397     0.386927     0.844891    Uiso  ? C
   C657       1.0     0.546017     0.335573     0.739267    Uiso  ? C
   C658       1.0     0.525443     0.342938     0.716571    Uiso  ? C
   C659       1.0     0.525227     0.327173     0.691054    Uiso  ? C
   H401       1.0     0.536202     0.308113     0.689299    Uiso  ? H
   C660       1.0     0.507103     0.337067     0.669461    Uiso  ? C
   H402       1.0     0.507175     0.327243     0.648891    Uiso  ? H
   C661       1.0     0.491077     0.361984     0.671396    Uiso  ? C
   H403       1.0     0.477818     0.370121     0.655042    Uiso  ? H
   C662       1.0     0.489600     0.376287     0.697165    Uiso  ? C
   C663       1.0     0.504793     0.365797     0.720503    Uiso  ? C
   H404       1.0     0.502485     0.375146     0.741566    Uiso  ? H
   C664       1.0     0.472508     0.401219     0.700238    Uiso  ? C
   C665       1.0     0.408588     0.487584     0.725708    Uiso  ? C
   C666       1.0     0.386049     0.504227     0.738487    Uiso  ? C
   C667       1.0     0.357851     0.498585     0.732306    Uiso  ? C
   H405       1.0     0.353424     0.482502     0.718250    Uiso  ? H
   C668       1.0     0.335393     0.513016     0.746187    Uiso  ? C
   H406       1.0     0.313757     0.506961     0.741321    Uiso  ? H
   C669       1.0     0.342476     0.534087     0.767528    Uiso  ? C
   H407       1.0     0.326504     0.547425     0.777971    Uiso  ? H
   C670       1.0     0.370401     0.538215     0.774790    Uiso  ? C
   C671       1.0     0.392433     0.524339     0.758626    Uiso  ? C
   H408       1.0     0.413452     0.529807     0.763474    Uiso  ? H
   C672       1.0     0.376865     0.555233     0.799900    Uiso  ? C
   O325       1.0     0.465389     0.384351     0.106350    Uiso  ? O
   O326       1.0     0.430756     0.353886     0.112803    Uiso  ? O
   O327       1.0     0.422609     0.415604     0.121032    Uiso  ? O
   O328       1.0     0.381821     0.394459     0.132813    Uiso  ? O
   O329       1.0     0.408630     0.438117     0.888962    Uiso  ? O
   O330       1.0     0.372478     0.407723     0.880757    Uiso  ? O
   O331       1.0     0.431759     0.387389     0.843407    Uiso  ? O
   O332       1.0     0.386982     0.382847     0.856024    Uiso  ? O
   O333       1.0     0.644411     0.354532     0.155157    Uiso  ? O
   O334       1.0     0.646192     0.309177     0.156076    Uiso  ? O
   O335       1.0     0.581695     0.374807     0.176288    Uiso  ? O
   O336       1.0     0.602292     0.343697     0.205631    Uiso  ? O
   O337       1.0     0.560135     0.355980     0.157338    Uiso  ? O
   O338       1.0     0.562721     0.309177     0.165816    Uiso  ? O
   O339       1.0     0.594664     0.327932     0.114304    Uiso  ? O
   O340       1.0     0.584397     0.292326     0.143946    Uiso  ? O
   O341       1.0     0.544440     0.504507     0.225821    Uiso  ? O
   O342       1.0     0.521488     0.512779     0.264598    Uiso  ? O
   O343       1.0     0.489195     0.539534     0.216711    Uiso  ? O
   O344       1.0     0.494941     0.531823     0.261955    Uiso  ? O
   O345       1.0     0.475401     0.469030     0.196122    Uiso  ? O
   O346       1.0     0.450953     0.495838     0.223619    Uiso  ? O
   O347       1.0     0.536047     0.465885     0.213905    Uiso  ? O
   O348       1.0     0.508447     0.454028     0.249945    Uiso  ? O
   O349       1.0     0.628216     0.351885     0.785888    Uiso  ? O
   O350       1.0     0.632436     0.305141     0.788586    Uiso  ? O
   O351       1.0     0.579889     0.322334     0.818083    Uiso  ? O
   O352       1.0     0.572303     0.283382     0.793596    Uiso  ? O
   O353       1.0     0.546702     0.350418     0.761202    Uiso  ? O
   O354       1.0     0.567257     0.318267     0.733110    Uiso  ? O
   O355       1.0     0.614511     0.357932     0.754977    Uiso  ? O
   O356       1.0     0.598753     0.325526     0.726435    Uiso  ? O
   O357       1.0     0.477462     0.416990     0.721908    Uiso  ? O
   O358       1.0     0.455921     0.410167     0.681209    Uiso  ? O
   O359       1.0     0.448032     0.423359     0.745172    Uiso  ? O
   O360       1.0     0.411028     0.432161     0.717273    Uiso  ? O
   O361       1.0     0.433136     0.490925     0.737043    Uiso  ? O
   O362       1.0     0.402388     0.468496     0.706062    Uiso  ? O
   O363       1.0     0.491236     0.470480     0.696787    Uiso  ? O
   O364       1.0     0.458034     0.475308     0.663051    Uiso  ? O
   O365       1.0     0.745985     0.456676     0.842199    Uiso  ? O
   O366       1.0     0.785861     0.432405     0.832154    Uiso  ? O
   O367       1.0     0.734607     0.444874     0.116980    Uiso  ? O
   O368       1.0     0.773348     0.455381     0.897348    Uiso  ? O
   O369       1.0     0.723342     0.409993     0.109269    Uiso  ? O
   O370       1.0     0.756118     0.384008     0.888989    Uiso  ? O
   O371       1.0     0.703073     0.406806     0.852981    Uiso  ? O
   O372       1.0     0.745228     0.388135     0.851334    Uiso  ? O
   O373       1.0     0.474467     0.439666     0.869418    Uiso  ? O
   O374       1.0     0.610665     0.390657     0.110924    Uiso  ? O
   O375       1.0     0.514496     0.512086     0.160913    Uiso  ? O
   O376       1.0     0.569531     0.390922     0.804857    Uiso  ? O
   O377       1.0     0.485948     0.469276     0.767708    Uiso  ? O
   O378       1.0     0.691045     0.471631     0.877224    Uiso  ? O
   Zn73       1.0     0.442240     0.408779     0.880969    Uiso  ? Zn
   Zn74       1.0     0.391876     0.370019     0.898451    Uiso  ? Zn
   Zn75       1.0     0.603412     0.358845     0.141123    Uiso  ? Zn
   Zn76       1.0     0.608144     0.308437     0.177621    Uiso  ? Zn
   Zn77       1.0     0.505694     0.499638     0.200821    Uiso  ? Zn
   Zn78       1.0     0.483981     0.490808     0.252129    Uiso  ? Zn
   Zn79       1.0     0.583469     0.352336     0.788624    Uiso  ? Zn
   Zn80       1.0     0.597049     0.295885     0.760767    Uiso  ? Zn
   Zn81       1.0     0.465482     0.459838     0.730886    Uiso  ? Zn
   Zn82       1.0     0.429648     0.446167     0.676981    Uiso  ? Zn
   Zn83       1.0     0.719211     0.439086     0.874930    Uiso  ? Zn
   Zn84       1.0     0.775501     0.419646     0.871192    Uiso  ? Zn
   C673       1.0     0.703919     0.643559     0.807049    Uiso  ? C
   C674       1.0     0.685435     0.667578     0.803552    Uiso  ? C
   C675       1.0     0.696312     0.696062     0.799118    Uiso  ? C
   H409       1.0     0.718840     0.700013     0.801822    Uiso  ? H
   C676       1.0     0.679133     0.719559     0.794436    Uiso  ? C
   H410       1.0     0.687365     0.741443     0.793412    Uiso  ? H
   C677       1.0     0.650189     0.714012     0.792180    Uiso  ? C
   H411       1.0     0.639384     0.731773     0.784243    Uiso  ? H
   C678       1.0     0.638133     0.687190     0.795052    Uiso  ? C
   C679       1.0     0.656402     0.665096     0.803647    Uiso  ? C
   H412       1.0     0.646828     0.643860     0.805412    Uiso  ? H
   C680       1.0     0.608342     0.681418     0.788490    Uiso  ? C
   C681       1.0     0.716475     0.592687     0.762600    Uiso  ? C
   C682       1.0     0.707753     0.587861     0.733807    Uiso  ? C
   C683       1.0     0.706572     0.610107     0.714267    Uiso  ? C
   H413       1.0     0.712554     0.631576     0.721986    Uiso  ? H
   C684       1.0     0.697902     0.606152     0.685620    Uiso  ? C
   H414       1.0     0.695617     0.623714     0.670274    Uiso  ? H
   C685       1.0     0.690248     0.578138     0.677027    Uiso  ? C
   H415       1.0     0.681988     0.576271     0.656966    Uiso  ? H
   C686       1.0     0.691831     0.555578     0.696423    Uiso  ? C
   C687       1.0     0.702709     0.560578     0.724400    Uiso  ? C
   H416       1.0     0.705254     0.542380     0.739392    Uiso  ? H
   C688       1.0     0.678290     0.527874     0.688468    Uiso  ? C
   C689       1.0     0.758115     0.551187     0.796701    Uiso  ? C
   C690       1.0     0.770556     0.523124     0.789925    Uiso  ? C
   C691       1.0     0.793545     0.519882     0.771534    Uiso  ? C
   H417       1.0     0.800893     0.538285     0.760068    Uiso  ? H
   C692       1.0     0.808010     0.494628     0.770926    Uiso  ? C
   H418       1.0     0.826210     0.493207     0.757384    Uiso  ? H
   C693       1.0     0.797871     0.470075     0.786087    Uiso  ? C
   H419       1.0     0.810183     0.450633     0.785082    Uiso  ? H
   C694       1.0     0.773988     0.472814     0.803060    Uiso  ? C
   C695       1.0     0.761743     0.500490     0.805955    Uiso  ? C
   H420       1.0     0.744603     0.505015     0.819473    Uiso  ? H
   C696       1.0     0.767294     0.451356     0.825147    Uiso  ? C
   C697       1.0     0.747852     0.602121     0.867839    Uiso  ? C
   C698       1.0     0.751674     0.607235     0.898402    Uiso  ? C
   C699       1.0     0.775802     0.622877     0.106981    Uiso  ? C
   H421       1.0     0.792258     0.624346     0.892609    Uiso  ? H
   C700       1.0     0.782095     0.626446     0.135286    Uiso  ? C
   H422       1.0     0.802654     0.636540     0.141115    Uiso  ? H
   C701       1.0     0.762280     0.618517     0.156187    Uiso  ? C
   H423       1.0     0.766936     0.622131     0.178793    Uiso  ? H
   C702       1.0     0.737689     0.603202     0.148323    Uiso  ? C
   C703       1.0     0.731903     0.599395     0.118625    Uiso  ? C
   H424       1.0     0.715097     0.585813     0.109561    Uiso  ? H
   C704       1.0     0.718200     0.589029     0.167704    Uiso  ? C
   C705       1.0     0.505821     0.657747     0.768211    Uiso  ? C
   C706       1.0     0.474636     0.656041     0.769285    Uiso  ? C
   C707       1.0     0.457021     0.677605     0.758270    Uiso  ? C
   H425       1.0     0.465397     0.694186     0.745422    Uiso  ? H
   C708       1.0     0.428287     0.677482     0.763391    Uiso  ? C
   H426       1.0     0.414993     0.695144     0.756284    Uiso  ? H
   C709       1.0     0.414997     0.657563     0.778711    Uiso  ? C
   H427       1.0     0.392855     0.658479     0.784156    Uiso  ? H
   C710       1.0     0.430474     0.634458     0.789209    Uiso  ? C
   C711       1.0     0.460745     0.632966     0.784150    Uiso  ? C
   H428       1.0     0.472794     0.616769     0.794696    Uiso  ? H
   C712       1.0     0.417340     0.614473     0.809359    Uiso  ? C
   C713       1.0     0.582477     0.629855     0.724208    Uiso  ? C
   C714       1.0     0.593232     0.615503     0.698114    Uiso  ? C
   C715       1.0     0.592062     0.629539     0.671116    Uiso  ? C
   H429       1.0     0.585991     0.650541     0.666601    Uiso  ? H
   C716       1.0     0.599690     0.616423     0.645775    Uiso  ? C
   H430       1.0     0.594857     0.625588     0.624947    Uiso  ? H
   C717       1.0     0.607392     0.587439     0.646195    Uiso  ? C
   H431       1.0     0.609935     0.578160     0.626061    Uiso  ? H
   C718       1.0     0.612303     0.574419     0.673452    Uiso  ? C
   C719       1.0     0.604348     0.588477     0.699534    Uiso  ? C
   H432       1.0     0.605518     0.576761     0.718951    Uiso  ? H
   C720       1.0     0.618477     0.544275     0.676109    Uiso  ? C
   C721       1.0     0.547062     0.690418     0.812210    Uiso  ? C
   C722       1.0     0.537794     0.708236     0.837407    Uiso  ? C
   C723       1.0     0.521558     0.732382     0.830605    Uiso  ? C
   H433       1.0     0.519038     0.739135     0.809946    Uiso  ? H
   C724       1.0     0.510975     0.749196     0.853915    Uiso  ? C
   H434       1.0     0.502525     0.769848     0.850389    Uiso  ? H
   C725       1.0     0.514394     0.739842     0.881993    Uiso  ? C
   H435       1.0     0.504532     0.751133     0.898404    Uiso  ? H
   C726       1.0     0.530922     0.715479     0.887813    Uiso  ? C
   C727       1.0     0.543347     0.700807     0.865416    Uiso  ? C
   H436       1.0     0.552988     0.681410     0.868542    Uiso  ? H
   C728       1.0     0.532505     0.705345     0.115774    Uiso  ? C
   C729       1.0     0.586578     0.492665     0.648694    Uiso  ? C
   C730       1.0     0.556187     0.490164     0.639281    Uiso  ? C
   C731       1.0     0.549803     0.495751     0.610383    Uiso  ? C
   H437       1.0     0.566683     0.501349     0.597064    Uiso  ? H
   C732       1.0     0.520301     0.498856     0.601865    Uiso  ? C
   H438       1.0     0.514038     0.504621     0.580611    Uiso  ? H
   C733       1.0     0.498981     0.494592     0.622990    Uiso  ? C
   H439       1.0     0.477195     0.495795     0.615025    Uiso  ? H
   C734       1.0     0.506192     0.486915     0.651356    Uiso  ? C
   C735       1.0     0.535365     0.483602     0.659215    Uiso  ? C
   H440       1.0     0.540627     0.478702     0.680844    Uiso  ? H
   C736       1.0     0.483104     0.479975     0.672873    Uiso  ? C
   C737       1.0     0.637856     0.437519     0.679649    Uiso  ? C
   C738       1.0     0.639238     0.406337     0.681660    Uiso  ? C
   C739       1.0     0.651086     0.389828     0.659410    Uiso  ? C
   H441       1.0     0.659091     0.400612     0.640504    Uiso  ? H
   C740       1.0     0.651766     0.359740     0.662519    Uiso  ? C
   H442       1.0     0.662281     0.346777     0.646407    Uiso  ? H
   C741       1.0     0.637095     0.346946     0.685518    Uiso  ? C
   H443       1.0     0.636622     0.324551     0.686251    Uiso  ? H
   C742       1.0     0.623820     0.363203     0.706416    Uiso  ? C
   C743       1.0     0.627156     0.392588     0.705174    Uiso  ? C
   H444       1.0     0.618914     0.404860     0.723161    Uiso  ? H
   C744       1.0     0.612299     0.347911     0.730532    Uiso  ? C
   C745       1.0     0.471436     0.667718     0.151102    Uiso  ? C
   C746       1.0     0.439592     0.664678     0.143012    Uiso  ? C
   C747       1.0     0.417155     0.678105     0.157766    Uiso  ? C
   H445       1.0     0.419688     0.692050     0.178425    Uiso  ? H
   C748       1.0     0.389171     0.669453     0.153809    Uiso  ? C
   H446       1.0     0.371795     0.671609     0.169612    Uiso  ? H
   C749       1.0     0.382084     0.650668     0.131552    Uiso  ? C
   H447       1.0     0.361618     0.642983     0.130360    Uiso  ? H
   C750       1.0     0.403376     0.637663     0.116090    Uiso  ? C
   C751       1.0     0.432509     0.645687     0.120750    Uiso  ? C
   H448       1.0     0.449520     0.634443     0.110247    Uiso  ? H
   C752       1.0     0.396706     0.613450     0.896193    Uiso  ? C
   C753       1.0     0.571863     0.666211     0.194338    Uiso  ? C
   C754       1.0     0.598181     0.660149     0.209689    Uiso  ? C
   C755       1.0     0.607178     0.679714     0.230033    Uiso  ? C
   H449       1.0     0.593886     0.694678     0.237703    Uiso  ? H
   C756       1.0     0.632377     0.673324     0.245677    Uiso  ? C
   H450       1.0     0.637396     0.687098     0.262853    Uiso  ? H
   C757       1.0     0.649623     0.651987     0.237705    Uiso  ? C
   H451       1.0     0.667448     0.647313     0.249329    Uiso  ? H
   C758       1.0     0.642247     0.632315     0.217301    Uiso  ? C
   C759       1.0     0.615033     0.636431     0.203403    Uiso  ? C
   H452       1.0     0.606326     0.620438     0.191186    Uiso  ? H
   C760       1.0     0.659733     0.606665     0.211959    Uiso  ? C
   C761       1.0     0.727766     0.524934     0.196091    Uiso  ? C
   C762       1.0     0.750230     0.507644     0.181625    Uiso  ? C
   C763       1.0     0.777519     0.513016     0.189221    Uiso  ? C
   H453       1.0     0.782053     0.527340     0.207040    Uiso  ? H
   C764       1.0     0.799655     0.499670     0.175669    Uiso  ? C
   H454       1.0     0.821702     0.498513     0.184346    Uiso  ? H
   C765       1.0     0.793704     0.481866     0.152079    Uiso  ? C
   H455       1.0     0.810651     0.467886     0.144637    Uiso  ? H
   C766       1.0     0.766080     0.478089     0.142367    Uiso  ? C
   C767       1.0     0.744486     0.491037     0.157187    Uiso  ? C
   H456       1.0     0.721894     0.487500     0.149868    Uiso  ? H
   C768       1.0     0.757767     0.459399     0.118054    Uiso  ? C
   O379       1.0     0.695964     0.623204     0.823833    Uiso  ? O
   O380       1.0     0.727344     0.640244     0.794139    Uiso  ? O
   O381       1.0     0.713474     0.573942     0.780608    Uiso  ? O
   O382       1.0     0.732821     0.613723     0.769088    Uiso  ? O
   O383       1.0     0.731803     0.553431     0.801332    Uiso  ? O
   O384       1.0     0.773992     0.572660     0.802329    Uiso  ? O
   O385       1.0     0.733100     0.581222     0.859661    Uiso  ? O
   O386       1.0     0.758575     0.618450     0.849490    Uiso  ? O
   O387       1.0     0.520524     0.636919     0.776952    Uiso  ? O
   O388       1.0     0.517054     0.682166     0.761757    Uiso  ? O
   O389       1.0     0.588124     0.621894     0.748938    Uiso  ? O
   O390       1.0     0.566969     0.650971     0.721488    Uiso  ? O
   O391       1.0     0.595631     0.663565     0.804103    Uiso  ? O
   O392       1.0     0.598827     0.690475     0.764716    Uiso  ? O
   O393       1.0     0.563923     0.669038     0.815764    Uiso  ? O
   O394       1.0     0.537836     0.694667     0.786422    Uiso  ? O
   O395       1.0     0.592634     0.496900     0.674806    Uiso  ? O
   O396       1.0     0.606934     0.492904     0.630996    Uiso  ? O
   O397       1.0     0.626194     0.451059     0.699725    Uiso  ? O
   O398       1.0     0.648636     0.450078     0.659020    Uiso  ? O
   O399       1.0     0.669367     0.512220     0.708343    Uiso  ? O
   O400       1.0     0.671331     0.524780     0.663401    Uiso  ? O
   O401       1.0     0.604980     0.527575     0.693769    Uiso  ? O
   O402       1.0     0.634982     0.532830     0.657693    Uiso  ? O
   O403       1.0     0.491080     0.651796     0.138930    Uiso  ? O
   O404       1.0     0.479757     0.684752     0.169785    Uiso  ? O
   O405       1.0     0.549904     0.686797     0.122792    Uiso  ? O
   O406       1.0     0.516102     0.713561     0.134907    Uiso  ? O
   O407       1.0     0.558198     0.645361     0.183022    Uiso  ? O
   O408       1.0     0.562136     0.690401     0.191466    Uiso  ? O
   O409       1.0     0.523849     0.640815     0.189828    Uiso  ? O
   O410       1.0     0.496467     0.675816     0.202665    Uiso  ? O
   O411       1.0     0.650855     0.586220     0.197507    Uiso  ? O
   O412       1.0     0.685962     0.606269     0.222356    Uiso  ? O
   O413       1.0     0.694811     0.578113     0.159951    Uiso  ? O
   O414       1.0     0.726252     0.584923     0.193736    Uiso  ? O
   O415       1.0     0.702249     0.517525     0.193162    Uiso  ? O
   O416       1.0     0.733122     0.548877     0.205429    Uiso  ? O
   O417       1.0     0.639948     0.553241     0.210849    Uiso  ? O
   O418       1.0     0.672582     0.543173     0.242792    Uiso  ? O
   O419       1.0     0.395549     0.535178     0.862803    Uiso  ? O
   O420       1.0     0.353669     0.554264     0.852815    Uiso  ? O
   O421       1.0     0.402762     0.560318     0.807025    Uiso  ? O
   O422       1.0     0.357641     0.564974     0.816019    Uiso  ? O
   O423       1.0     0.424005     0.588664     0.809501    Uiso  ? O
   O424       1.0     0.397984     0.622614     0.825561    Uiso  ? O
   O425       1.0     0.416657     0.604618     0.879027    Uiso  ? O
   O426       1.0     0.371893     0.604832     0.891452    Uiso  ? O
   O427       1.0     0.670679     0.567613     0.837256    Uiso  ? O
   O428       1.0     0.568844     0.596260     0.807604    Uiso  ? O
   O429       1.0     0.623401     0.471546     0.737211    Uiso  ? O
   O430       1.0     0.549317     0.622773     0.115765    Uiso  ? O
   O431       1.0     0.654602     0.523307     0.150439    Uiso  ? O
   O432       1.0     0.460448     0.562132     0.857201    Uiso  ? O
   Zn85       1.0     0.710947     0.582174     0.825700    Uiso  ? Zn
   Zn86       1.0     0.762712     0.615393     0.805586    Uiso  ? Zn
   Zn87       1.0     0.564347     0.634200     0.785023    Uiso  ? Zn
   Zn88       1.0     0.559434     0.685473     0.747457    Uiso  ? Zn
   Zn89       1.0     0.630866     0.493551     0.700338    Uiso  ? Zn
   Zn90       1.0     0.648790     0.492171     0.641229    Uiso  ? Zn
   Zn91       1.0     0.533446     0.650535     0.145784    Uiso  ? Zn
   Zn92       1.0     0.520123     0.704027     0.178024    Uiso  ? Zn
   Zn93       1.0     0.674193     0.549726     0.180406    Uiso  ? Zn
   Zn94       1.0     0.706994     0.569052     0.231752    Uiso  ? Zn
   Zn95       1.0     0.418893     0.571095     0.850215    Uiso  ? Zn
   Zn96       1.0     0.366643     0.598539     0.847991    Uiso  ? Zn
   H457       1.0     0.565985     0.595487     0.828081    Uiso  ? H
   H458       1.0     0.576816     0.578921     0.801095    Uiso  ? H
   H459       1.0     0.602424     0.409300     0.112404    Uiso  ? H
   H460       1.0     0.624212     0.384932     0.896846    Uiso  ? H
   H461       1.0     0.687465     0.484157     0.893461    Uiso  ? H
   H462       1.0     0.673173     0.466565     0.865757    Uiso  ? H
   H463       1.0     0.549580     0.392779     0.810508    Uiso  ? H
   H464       1.0     0.581021     0.407494     0.804514    Uiso  ? H
   H465       1.0     0.467566     0.545593     0.866914    Uiso  ? H
   H466       1.0     0.475806     0.573448     0.846991    Uiso  ? H
   H467       1.0     0.486904     0.442384     0.887185    Uiso  ? H
   H468       1.0     0.474770     0.455190     0.855240    Uiso  ? H
   H469       1.0     0.496404     0.486860     0.764864    Uiso  ? H
   H470       1.0     0.485043     0.459766     0.786044    Uiso  ? H
   H471       1.0     0.570000     0.623854     0.115659    Uiso  ? H
   H472       1.0     0.536687     0.611415     0.103254    Uiso  ? H
   H473       1.0     0.529150     0.526068     0.159311    Uiso  ? H
   H474       1.0     0.506270     0.502620     0.144451    Uiso  ? H
   H475       1.0     0.643581     0.533864     0.135816    Uiso  ? H
   H476       1.0     0.652703     0.503017     0.150487    Uiso  ? H
   H477       1.0     0.639922     0.474971     0.748961    Uiso  ? H
   H478       1.0     0.605381     0.466849     0.744811    Uiso  ? H
   H479       1.0     0.661685     0.564995     0.855778    Uiso  ? H
   H480       1.0     0.660026     0.567621     0.819564    Uiso  ? H
   C769       1.0     0.608643     0.252251     0.202464    Uiso  ? C
   C770       1.0     0.610853     0.238120     0.229072    Uiso  ? C
   C771       1.0     0.627388     0.280548     0.230533    Uiso  ? C
   N1         1.0     0.618155     0.278764     0.204545    Uiso  ? N
   H481       1.0     0.601322     0.242274     0.182689    Uiso  ? H
   H482       1.0     0.603893     0.217268     0.235448    Uiso  ? H
   H483       1.0     0.633375     0.299685     0.240520    Uiso  ? H
   N2         1.0     0.622697     0.256691     0.246921    Uiso  ? N
   C772       1.0     0.627137     0.254703     0.277207    Uiso  ? C
   H484       1.0     0.631256     0.231948     0.281641    Uiso  ? H
   H485       1.0     0.644581     0.269499     0.282147    Uiso  ? H
   C773       1.0     0.602017     0.264828     0.292692    Uiso  ? C
   C774       1.0     0.601269     0.292574     0.302550    Uiso  ? C
   C775       1.0     0.577490     0.249175     0.291768    Uiso  ? C
   C776       1.0     0.576377     0.307354     0.306806    Uiso  ? C
   H486       1.0     0.620338     0.303443     0.303923    Uiso  ? H
   C777       1.0     0.552225     0.262450     0.297327    Uiso  ? C
   H487       1.0     0.579414     0.227079     0.286857    Uiso  ? H
   C778       1.0     0.551206     0.291964     0.301854    Uiso  ? C
   H488       1.0     0.574109     0.330119     0.307708    Uiso  ? H
   H489       1.0     0.531541     0.251630     0.297382    Uiso  ? H
   C779       1.0     0.523989     0.306676     0.301553    Uiso  ? C
   C780       1.0     0.507894     0.306430     0.276164    Uiso  ? C
   C781       1.0     0.509884     0.314295     0.326988    Uiso  ? C
   C782       1.0     0.480086     0.311915     0.276870    Uiso  ? C
   H490       1.0     0.518773     0.301690     0.256209    Uiso  ? H
   C783       1.0     0.481366     0.323600     0.326258    Uiso  ? C
   H491       1.0     0.520820     0.315512     0.346913    Uiso  ? H
   C784       1.0     0.466648     0.323233     0.300600    Uiso  ? C
   H492       1.0     0.467792     0.306919     0.258180    Uiso  ? H
   H493       1.0     0.472470     0.331701     0.344844    Uiso  ? H
   C785       1.0     0.434518     0.326048     0.298919    Uiso  ? C
   H494       1.0     0.429014     0.344954     0.311816    Uiso  ? H
   H495       1.0     0.426138     0.327922     0.276242    Uiso  ? H
   N3         1.0     0.421873     0.299433     0.309499    Uiso  ? N
   C786       1.0     0.397550     0.287979     0.300364    Uiso  ? C
   C787       1.0     0.431922     0.280849     0.329701    Uiso  ? C
   C788       1.0     0.394981     0.262185     0.313465    Uiso  ? C
   H496       1.0     0.384093     0.297557     0.284754    Uiso  ? H
   H497       1.0     0.451190     0.283660     0.343094    Uiso  ? H
   H498       1.0     0.377336     0.248003     0.311471    Uiso  ? H
   N4         1.0     0.415824     0.257825     0.332144    Uiso  ? N
   C789       1.0     0.626811     0.761769     0.399604    Uiso  ? C
   C790       1.0     0.654513     0.755162     0.394519    Uiso  ? C
   C791       1.0     0.651732     0.770327     0.437274    Uiso  ? C
   N5         1.0     0.624791     0.769751     0.426861    Uiso  ? N
   H499       1.0     0.609471     0.760228     0.385253    Uiso  ? H
   H500       1.0     0.664059     0.751930     0.373924    Uiso  ? H
   H501       1.0     0.657658     0.776688     0.458012    Uiso  ? H
   N6         1.0     0.670079     0.762941     0.417111    Uiso  ? N
   C792       1.0     0.700034     0.759569     0.421537    Uiso  ? C
   H502       1.0     0.708005     0.778600     0.411257    Uiso  ? H
   H503       1.0     0.705436     0.760934     0.444648    Uiso  ? H
   C793       1.0     0.708211     0.730052     0.411173    Uiso  ? C
   C794       1.0     0.724097     0.726973     0.387114    Uiso  ? C
   C795       1.0     0.698732     0.704148     0.424932    Uiso  ? C
   C796       1.0     0.731040     0.698768     0.377356    Uiso  ? C
   H504       1.0     0.731848     0.745773     0.377618    Uiso  ? H
   C797       1.0     0.704955     0.677946     0.413938    Uiso  ? C
   H505       1.0     0.688018     0.705356     0.444674    Uiso  ? H
   C798       1.0     0.722325     0.674246     0.391213    Uiso  ? C
   H506       1.0     0.743853     0.699080     0.358706    Uiso  ? H
   H507       1.0     0.697914     0.657964     0.425159    Uiso  ? H
   C799       1.0     0.730277     0.645662     0.382209    Uiso  ? C
   C800       1.0     0.709194     0.625469     0.379825    Uiso  ? C
   C801       1.0     0.757899     0.640838     0.372048    Uiso  ? C
   C802       1.0     0.717058     0.599429     0.365942    Uiso  ? C
   H508       1.0     0.689919     0.628002     0.391001    Uiso  ? H
   C803       1.0     0.765289     0.613867     0.359022    Uiso  ? C
   H509       1.0     0.774321     0.657766     0.374691    Uiso  ? H
   C804       1.0     0.745154     0.593418     0.357358    Uiso  ? C
   H510       1.0     0.701632     0.582361     0.366442    Uiso  ? H
   H511       1.0     0.786357     0.611065     0.351828    Uiso  ? H
   C805       1.0     0.752515     0.566822     0.343062    Uiso  ? C
   H512       1.0     0.773844     0.558669     0.349510    Uiso  ? H
   H513       1.0     0.735987     0.550850     0.350574    Uiso  ? H
   N7         1.0     0.750957     0.571496     0.311536    Uiso  ? N
   C806       1.0     0.771684     0.576712     0.293332    Uiso  ? C
   C807       1.0     0.729126     0.566519     0.294671    Uiso  ? C
   C808       1.0     0.761042     0.578230     0.266162    Uiso  ? C
   H514       1.0     0.794920     0.580459     0.298620    Uiso  ? H
   H515       1.0     0.709866     0.561371     0.304491    Uiso  ? H
   H516       1.0     0.773611     0.584766     0.247578    Uiso  ? H
   N8         1.0     0.733940     0.570869     0.266081    Uiso  ? N
   C809       1.0     0.353093     0.748316     0.769275    Uiso  ? C
   C810       1.0     0.356026     0.737670     0.795324    Uiso  ? C
   C811       1.0     0.370121     0.780234     0.794851    Uiso  ? C
   N9         1.0     0.361033     0.775753     0.769112    Uiso  ? N
   H517       1.0     0.344797     0.738198     0.751208    Uiso  ? H
   H518       1.0     0.352680     0.716093     0.802352    Uiso  ? H
   H519       1.0     0.379231     0.800193     0.798887    Uiso  ? H
   N10        1.0     0.368665     0.756387     0.811061    Uiso  ? N
   C812       1.0     0.384144     0.751873     0.837744    Uiso  ? C
   H520       1.0     0.376698     0.765648     0.854545    Uiso  ? H
   H521       1.0     0.382414     0.730989     0.844181    Uiso  ? H
   C813       1.0     0.416093     0.754944     0.833598    Uiso  ? C
   C814       1.0     0.427857     0.732725     0.818736    Uiso  ? C
   C815       1.0     0.428923     0.781351     0.834876    Uiso  ? C
   C816       1.0     0.452097     0.736862     0.804649    Uiso  ? C
   H522       1.0     0.417412     0.713209     0.817460    Uiso  ? H
   C817       1.0     0.451529     0.787108     0.817210    Uiso  ? C
   H523       1.0     0.417590     0.798871     0.844467    Uiso  ? H
   C818       1.0     0.462144     0.764812     0.800095    Uiso  ? C
   H524       1.0     0.460234     0.718603     0.796411    Uiso  ? H
   H525       1.0     0.458910     0.809657     0.812466    Uiso  ? H
   C819       1.0     0.481408     0.771519     0.775180    Uiso  ? C
   C820       1.0     0.506009     0.789469     0.777732    Uiso  ? C
   C821       1.0     0.475800     0.759605     0.749057    Uiso  ? C
   C822       1.0     0.522677     0.794691     0.754233    Uiso  ? C
   H526       1.0     0.514027     0.796067     0.798246    Uiso  ? H
   C823       1.0     0.493559     0.765092     0.726047    Uiso  ? C
   H527       1.0     0.457894     0.746479     0.743260    Uiso  ? H
   C824       1.0     0.517067     0.783507     0.728739    Uiso  ? C
   H528       1.0     0.541545     0.807497     0.757588    Uiso  ? H
   H529       1.0     0.489394     0.754060     0.706459    Uiso  ? H
   C825       1.0     0.540276     0.785170     0.705927    Uiso  ? C
   H530       1.0     0.529871     0.789363     0.684655    Uiso  ? H
   H531       1.0     0.556640     0.802824     0.710882    Uiso  ? H
   N11        1.0     0.554822     0.758115     0.703557    Uiso  ? N
   C826       1.0     0.549813     0.739940     0.681764    Uiso  ? C
   C827       1.0     0.562079     0.742064     0.724981    Uiso  ? C
   C828       1.0     0.552948     0.712115     0.690493    Uiso  ? C
   H532       1.0     0.538442     0.745109     0.662394    Uiso  ? H
   H533       1.0     0.561988     0.750970     0.747946    Uiso  ? H
   H534       1.0     0.549701     0.692789     0.677059    Uiso  ? H
   N12        1.0     0.558900     0.714349     0.717906    Uiso  ? N
   C829       1.0     0.409063     0.447545     0.618872    Uiso  ? C
   C830       1.0     0.394044     0.430504     0.599222    Uiso  ? C
   C831       1.0     0.397505     0.408484     0.637780    Uiso  ? C
   N13        1.0     0.411187     0.433444     0.642634    Uiso  ? N
   H535       1.0     0.420777     0.465461     0.614684    Uiso  ? H
   H536       1.0     0.397696     0.431555     0.575657    Uiso  ? H
   H537       1.0     0.401263     0.390824     0.649749    Uiso  ? H
   N14        1.0     0.387711     0.405975     0.610987    Uiso  ? N
   C832       1.0     0.377073     0.381889     0.596613    Uiso  ? C
   H538       1.0     0.369822     0.389466     0.576168    Uiso  ? H
   H539       1.0     0.396456     0.366535     0.593815    Uiso  ? H
   C833       1.0     0.352330     0.370490     0.613092    Uiso  ? C
   C834       1.0     0.326156     0.383637     0.613404    Uiso  ? C
   C835       1.0     0.354992     0.343814     0.624622    Uiso  ? C
   C836       1.0     0.304272     0.372696     0.630086    Uiso  ? C
   H540       1.0     0.323687     0.402836     0.601924    Uiso  ? H
   C837       1.0     0.333241     0.331147     0.639101    Uiso  ? C
   H541       1.0     0.374504     0.330516     0.620733    Uiso  ? H
   C838       1.0     0.307362     0.345530     0.642524    Uiso  ? C
   H542       1.0     0.285146     0.384568     0.632874    Uiso  ? H
   H543       1.0     0.335575     0.309319     0.647146    Uiso  ? H
   C839       1.0     0.283668     0.333865     0.658831    Uiso  ? C
   C840       1.0     0.290281     0.316552     0.682752    Uiso  ? C
   C841       1.0     0.254476     0.336745     0.652062    Uiso  ? C
   C842       1.0     0.267965     0.302146     0.696080    Uiso  ? C
   H544       1.0     0.312076     0.310380     0.690808    Uiso  ? H
   C843       1.0     0.234067     0.323632     0.667078    Uiso  ? C
   H545       1.0     0.247049     0.346279     0.632916    Uiso  ? H
   C844       1.0     0.240411     0.305982     0.688685    Uiso  ? C
   H546       1.0     0.272715     0.288153     0.713919    Uiso  ? H
   H547       1.0     0.211808     0.324920     0.661235    Uiso  ? H
   C845       1.0     0.216781     0.285360     0.700132    Uiso  ? C
   H548       1.0     0.223360     0.276492     0.719920    Uiso  ? H
   H549       1.0     0.195772     0.294878     0.702366    Uiso  ? H
   N15        1.0     0.214034     0.262162     0.679918    Uiso  ? N
   C846       1.0     0.192741     0.243662     0.679092    Uiso  ? C
   C847       1.0     0.228372     0.257948     0.654537    Uiso  ? C
   C848       1.0     0.196147     0.225784     0.656392    Uiso  ? C
   H550       1.0     0.175397     0.245341     0.694681    Uiso  ? H
   H551       1.0     0.250714     0.264232     0.650603    Uiso  ? H
   H552       1.0     0.184541     0.205121     0.653956    Uiso  ? H
   N16        1.0     0.218029     0.236802     0.639980    Uiso  ? N
   C849       1.0     0.437596     0.389122     0.541849    Uiso  ? C
   C850       1.0     0.449420     0.413652     0.549034    Uiso  ? C
   C851       1.0     0.454092     0.386793     0.585074    Uiso  ? C
   N17        1.0     0.442223     0.371484     0.564863    Uiso  ? N
   H553       1.0     0.429872     0.381912     0.520232    Uiso  ? H
   H554       1.0     0.453104     0.429364     0.535202    Uiso  ? H
   H555       1.0     0.461489     0.380424     0.605566    Uiso  ? H
   N18        1.0     0.458975     0.412176     0.576673    Uiso  ? N
   C852       1.0     0.476769     0.432517     0.592357    Uiso  ? C
   H556       1.0     0.476858     0.452284     0.582236    Uiso  ? H
   H557       1.0     0.467672     0.434948     0.614957    Uiso  ? H
   C853       1.0     0.507245     0.422233     0.593277    Uiso  ? C
   C854       1.0     0.524540     0.423630     0.569651    Uiso  ? C
   C855       1.0     0.519829     0.411960     0.618141    Uiso  ? C
   C856       1.0     0.551954     0.413599     0.570236    Uiso  ? C
   H558       1.0     0.516647     0.434529     0.551154    Uiso  ? H
   C857       1.0     0.546191     0.399273     0.618675    Uiso  ? C
   H559       1.0     0.508913     0.413306     0.638439    Uiso  ? H
   C858       1.0     0.562973     0.398169     0.593506    Uiso  ? C
   H560       1.0     0.565633     0.418298     0.552612    Uiso  ? H
   H561       1.0     0.554868     0.388478     0.638308    Uiso  ? H
   C859       1.0     0.588333     0.380146     0.592596    Uiso  ? C
   C860       1.0     0.590309     0.355049     0.609067    Uiso  ? C
   C861       1.0     0.610855     0.387166     0.573623    Uiso  ? C
   C862       1.0     0.613367     0.337127     0.606445    Uiso  ? C
   H562       1.0     0.573399     0.346016     0.622672    Uiso  ? H
   C863       1.0     0.634496     0.367807     0.571261    Uiso  ? C
   H563       1.0     0.611801     0.409093     0.562207    Uiso  ? H
   C864       1.0     0.635035     0.343845     0.587825    Uiso  ? C
   H564       1.0     0.615968     0.318418     0.617992    Uiso  ? H
   H565       1.0     0.651272     0.371130     0.556834    Uiso  ? H
   C865       1.0     0.659479     0.322017     0.581734    Uiso  ? C
   H566       1.0     0.656355     0.300234     0.590384    Uiso  ? H
   H567       1.0     0.661893     0.316294     0.558725    Uiso  ? H
   N19        1.0     0.686066     0.332228     0.593177    Uiso  ? N
   C866       1.0     0.703470     0.320505     0.612435    Uiso  ? C
   C867       1.0     0.700362     0.355916     0.583739    Uiso  ? C
   C868       1.0     0.727454     0.337663     0.615091    Uiso  ? C
   H568       1.0     0.697571     0.302551     0.626157    Uiso  ? H
   H569       1.0     0.694385     0.369750     0.565785    Uiso  ? H
   H570       1.0     0.744741     0.333239     0.629879    Uiso  ? H
   N20        1.0     0.725707     0.359299     0.596526    Uiso  ? N
   C869       1.0     0.625819     0.837187     0.713930    Uiso  ? C
   C870       1.0     0.641902     0.815104     0.723127    Uiso  ? C
   C871       1.0     0.614743     0.800681     0.689019    Uiso  ? C
   N21        1.0     0.609779     0.828936     0.692214    Uiso  ? N
   H571       1.0     0.629524     0.857590     0.717300    Uiso  ? H
   H572       1.0     0.659265     0.814930     0.738056    Uiso  ? H
   H573       1.0     0.607640     0.785412     0.672602    Uiso  ? H
   N22        1.0     0.634206     0.793068     0.708303    Uiso  ? N
   C872       1.0     0.650060     0.765656     0.708763    Uiso  ? C
   H574       1.0     0.666774     0.767502     0.724258    Uiso  ? H
   H575       1.0     0.636771     0.747602     0.714384    Uiso  ? H
   C873       1.0     0.662815     0.759806     0.680262    Uiso  ? C
   C874       1.0     0.648466     0.740396     0.662564    Uiso  ? C
   C875       1.0     0.687505     0.772235     0.672629    Uiso  ? C
   C876       1.0     0.662432     0.733365     0.635258    Uiso  ? C
   H576       1.0     0.628509     0.730928     0.666972    Uiso  ? H
   C877       1.0     0.697514     0.767330     0.643827    Uiso  ? C
   H577       1.0     0.697904     0.789257     0.683093    Uiso  ? H
   C878       1.0     0.685657     0.747842     0.626053    Uiso  ? C
   H578       1.0     0.652146     0.718101     0.622778    Uiso  ? H
   H579       1.0     0.715682     0.778254     0.638213    Uiso  ? H
   C879       1.0     0.698419     0.742043     0.597643    Uiso  ? C
   C880       1.0     0.700235     0.765260     0.579375    Uiso  ? C
   C881       1.0     0.700017     0.713908     0.585566    Uiso  ? C
   C882       1.0     0.705920     0.760495     0.550840    Uiso  ? C
   H580       1.0     0.696848     0.786086     0.587329    Uiso  ? H
   C883       1.0     0.704349     0.710017     0.557018    Uiso  ? C
   H581       1.0     0.695827     0.694426     0.597961    Uiso  ? H
   C884       1.0     0.708495     0.732672     0.538926    Uiso  ? C
   H582       1.0     0.709377     0.778814     0.538006    Uiso  ? H
   H583       1.0     0.702632     0.687872     0.547440    Uiso  ? H
   C885       1.0     0.713249     0.729838     0.507659    Uiso  ? C
   H584       1.0     0.699207     0.710525     0.500728    Uiso  ? H
   H585       1.0     0.704993     0.747600     0.496457    Uiso  ? H
   N23        1.0     0.743552     0.727619     0.501476    Uiso  ? N
   C886       1.0     0.764492     0.746758     0.505338    Uiso  ? C
   C887       1.0     0.754539     0.703332     0.491750    Uiso  ? C
   C888       1.0     0.789611     0.731920     0.500192    Uiso  ? C
   H586       1.0     0.761294     0.767458     0.513848    Uiso  ? H
   H587       1.0     0.741744     0.684782     0.485347    Uiso  ? H
   H588       1.0     0.810988     0.740182     0.502335    Uiso  ? H
   N24        1.0     0.782780     0.705498     0.490054    Uiso  ? N
   C889       1.0     0.330499     0.271242     0.479860    Uiso  ? C
   C890       1.0     0.342326     0.252384     0.459639    Uiso  ? C
   C891       1.0     0.311589     0.278581     0.438065    Uiso  ? C
   N25        1.0     0.309461     0.284961     0.465667    Uiso  ? N
   H589       1.0     0.336156     0.273117     0.501631    Uiso  ? H
   H590       1.0     0.358758     0.237111     0.464230    Uiso  ? H
   H591       1.0     0.296159     0.285548     0.423095    Uiso  ? H
   N26        1.0     0.329619     0.256322     0.434299    Uiso  ? N
   C892       1.0     0.336385     0.243860     0.407059    Uiso  ? C
   H592       1.0     0.353438     0.255602     0.395433    Uiso  ? H
   H593       1.0     0.343568     0.221736     0.412764    Uiso  ? H
   C893       1.0     0.310310     0.241893     0.387559    Uiso  ? C
   C894       1.0     0.310397     0.254281     0.360946    Uiso  ? C
   C895       1.0     0.285311     0.229008     0.397930    Uiso  ? C
   C896       1.0     0.285218     0.257003     0.344406    Uiso  ? C
   H594       1.0     0.330238     0.259315     0.352884    Uiso  ? H
   C897       1.0     0.261210     0.230468     0.381056    Uiso  ? C
   H595       1.0     0.286051     0.217804     0.417561    Uiso  ? H
   C898       1.0     0.260404     0.243817     0.353416    Uiso  ? C
   H596       1.0     0.285251     0.267825     0.324048    Uiso  ? H
   H597       1.0     0.241732     0.222597     0.388846    Uiso  ? H
   C899       1.0     0.233853     0.243429     0.336515    Uiso  ? C
   C900       1.0     0.235044     0.231166     0.308925    Uiso  ? C
   C901       1.0     0.207107     0.247357     0.349658    Uiso  ? C
   C902       1.0     0.212084     0.214778     0.299156    Uiso  ? C
   H598       1.0     0.254881     0.231422     0.297395    Uiso  ? H
   C903       1.0     0.182851     0.235738     0.337386    Uiso  ? C
   H599       1.0     0.204345     0.254385     0.372106    Uiso  ? H
   C904       1.0     0.186603     0.215562     0.314807    Uiso  ? C
   H600       1.0     0.212450     0.202008     0.280570    Uiso  ? H
   H601       1.0     0.162833     0.239256     0.346523    Uiso  ? H
   C905       1.0     0.164829     0.190592     0.310021    Uiso  ? C
   H602       1.0     0.142536     0.200246     0.315771    Uiso  ? H
   H603       1.0     0.163670     0.184524     0.288086    Uiso  ? H
   N27        1.0     0.171171     0.166446     0.329300    Uiso  ? N
   C906       1.0     0.157409     0.141907     0.328431    Uiso  ? C
   C907       1.0     0.190147     0.164297     0.348797    Uiso  ? C
   C908       1.0     0.167457     0.124658     0.349011    Uiso  ? C
   H604       1.0     0.139543     0.138833     0.314368    Uiso  ? H
   H605       1.0     0.205901     0.179382     0.355921    Uiso  ? H
   H606       1.0     0.160927     0.897201     0.354022    Uiso  ? H
   N28        1.0     0.189632     0.138700     0.360963    Uiso  ? N
   C909       1.0     0.380023     0.580527     0.356288    Uiso  ? C
   C910       1.0     0.407047     0.578266     0.344741    Uiso  ? C
   C911       1.0     0.393122     0.536846     0.358585    Uiso  ? C
   N29        1.0     0.370123     0.554101     0.362680    Uiso  ? N
   H607       1.0     0.367677     0.599823     0.355603    Uiso  ? H
   H608       1.0     0.420099     0.596118     0.335569    Uiso  ? H
   H609       1.0     0.392978     0.513218     0.360785    Uiso  ? H
   N30        1.0     0.415381     0.551221     0.349287    Uiso  ? N
   C912       1.0     0.445389     0.540839     0.349149    Uiso  ? C
   H610       1.0     0.445427     0.520609     0.338229    Uiso  ? H
   H611       1.0     0.459861     0.556445     0.337278    Uiso  ? H
   C913       1.0     0.455139     0.541799     0.379248    Uiso  ? C
   C914       1.0     0.463691     0.569472     0.390189    Uiso  ? C
   C915       1.0     0.446712     0.519928     0.397374    Uiso  ? C
   C916       1.0     0.458585     0.572937     0.419879    Uiso  ? C
   H612       1.0     0.470594     0.588342     0.377203    Uiso  ? H
   C917       1.0     0.442763     0.524307     0.425975    Uiso  ? C
   H613       1.0     0.443388     0.499638     0.388710    Uiso  ? H
   C918       1.0     0.447983     0.551583     0.437855    Uiso  ? C
   H614       1.0     0.461203     0.592907     0.430083    Uiso  ? H
   H615       1.0     0.432943     0.507398     0.437463    Uiso  ? H
   C919       1.0     0.439043     0.558145     0.467359    Uiso  ? C
   C920       1.0     0.421220     0.581002     0.472053    Uiso  ? C
   C921       1.0     0.445752     0.538205     0.489207    Uiso  ? C
   C922       1.0     0.408597     0.585794     0.499209    Uiso  ? C
   H616       1.0     0.413465     0.592858     0.454455    Uiso  ? H
   C923       1.0     0.435404     0.544813     0.516054    Uiso  ? C
   H617       1.0     0.459276     0.518561     0.487068    Uiso  ? H
   C924       1.0     0.417412     0.568503     0.522241    Uiso  ? C
   H618       1.0     0.390812     0.599751     0.499499    Uiso  ? H
   H619       1.0     0.444035     0.531721     0.531919    Uiso  ? H
   C925       1.0     0.400879     0.570349     0.549776    Uiso  ? C
   H620       1.0     0.384224     0.552747     0.553570    Uiso  ? H
   H621       1.0     0.418857     0.566825     0.564604    Uiso  ? H
   N31        1.0     0.387471     0.597630     0.553839    Uiso  ? N
   C926       1.0     0.359947     0.603645     0.556802    Uiso  ? C
   C927       1.0     0.402045     0.622379     0.549587    Uiso  ? C
   C928       1.0     0.357099     0.632358     0.551811    Uiso  ? C
   H622       1.0     0.341380     0.589056     0.562546    Uiso  ? H
   H623       1.0     0.423700     0.624526     0.542239    Uiso  ? H
   H624       1.0     0.337688     0.643528     0.550145    Uiso  ? H
   N32        1.0     0.383705     0.643663     0.548487    Uiso  ? N
   C929       1.0     0.816465     0.373644     0.886454    Uiso  ? C
   C930       1.0     0.829523     0.363714     0.111460    Uiso  ? C
   C931       1.0     0.807251     0.401206     0.121206    Uiso  ? C
   N33        1.0     0.803483     0.397931     0.893872    Uiso  ? N
   H625       1.0     0.814068     0.363417     0.866217    Uiso  ? H
   H626       1.0     0.842584     0.344231     0.113074    Uiso  ? H
   H627       1.0     0.798511     0.416651     0.133599    Uiso  ? H
   N34        1.0     0.820708     0.378843     0.133103    Uiso  ? N
   C932       1.0     0.826846     0.372397     0.162668    Uiso  ? C
   H628       1.0     0.825225     0.349127     0.165521    Uiso  ? H
   H629       1.0     0.848042     0.379320     0.168081    Uiso  ? H
   C933       1.0     0.805011     0.386242     0.181335    Uiso  ? C
   C934       1.0     0.811620     0.410277     0.196262    Uiso  ? C
   C935       1.0     0.777477     0.375823     0.182314    Uiso  ? C
   C936       1.0     0.792014     0.424234     0.212254    Uiso  ? C
   H630       1.0     0.832383     0.417128     0.194092    Uiso  ? H
   C937       1.0     0.757483     0.390992     0.197479    Uiso  ? C
   H631       1.0     0.771353     0.357993     0.169279    Uiso  ? H
   C938       1.0     0.763594     0.414476     0.213549    Uiso  ? C
   H632       1.0     0.798496     0.442363     0.224318    Uiso  ? H
   H633       1.0     0.736640     0.380748     0.195663    Uiso  ? H
   C939       1.0     0.742717     0.430336     0.231330    Uiso  ? C
   C940       1.0     0.718679     0.417378     0.240350    Uiso  ? C
   C941       1.0     0.747640     0.459376     0.239346    Uiso  ? C
   C942       1.0     0.700297     0.430839     0.258474    Uiso  ? C
   H634       1.0     0.715012     0.393925     0.237252    Uiso  ? H
   C943       1.0     0.725621     0.475166     0.250929    Uiso  ? C
   H635       1.0     0.767239     0.471548     0.233784    Uiso  ? H
   C944       1.0     0.703556     0.460751     0.262361    Uiso  ? C
   H636       1.0     0.681899     0.419470     0.267241    Uiso  ? H
   H637       1.0     0.733302     0.495624     0.256838    Uiso  ? H
   C945       1.0     0.681439     0.475571     0.279551    Uiso  ? C
   H638       1.0     0.679720     0.499023     0.274937    Uiso  ? H
   H639       1.0     0.659142     0.470014     0.271441    Uiso  ? H
   N35        1.0     0.688201     0.474990     0.310898    Uiso  ? N
   C946       1.0     0.670155     0.484507     0.331581    Uiso  ? C
   C947       1.0     0.712545     0.472152     0.322910    Uiso  ? C
   C948       1.0     0.686291     0.485819     0.356699    Uiso  ? C
   H640       1.0     0.647834     0.491171     0.330006    Uiso  ? H
   H641       1.0     0.730447     0.465183     0.309877    Uiso  ? H
   H642       1.0     0.679968     0.490130     0.377805    Uiso  ? H
   N36        1.0     0.712795     0.477053     0.350663    Uiso  ? N
   C949       1.0     0.435154     0.489801     0.292586    Uiso  ? C
   C950       1.0     0.418327     0.470639     0.306458    Uiso  ? C
   C951       1.0     0.455311     0.448077     0.292904    Uiso  ? C
   N37        1.0     0.457072     0.474431     0.282662    Uiso  ? N
   H643       1.0     0.430936     0.510715     0.286772    Uiso  ? H
   H644       1.0     0.397189     0.474950     0.316733    Uiso  ? H
   H645       1.0     0.469630     0.431932     0.286965    Uiso  ? H
   N38        1.0     0.431413     0.444993     0.307740    Uiso  ? N
   C952       1.0     0.419798     0.417912     0.319781    Uiso  ? C
   H646       1.0     0.437051     0.403959     0.321903    Uiso  ? H
   H647       1.0     0.414139     0.420892     0.343140    Uiso  ? H
   C953       1.0     0.396564     0.407645     0.300135    Uiso  ? C
   C954       1.0     0.403188     0.400210     0.273173    Uiso  ? C
   C955       1.0     0.368729     0.403669     0.309563    Uiso  ? C
   C956       1.0     0.381776     0.389385     0.253519    Uiso  ? C
   H648       1.0     0.423359     0.403037     0.267196    Uiso  ? H
   C957       1.0     0.347006     0.393357     0.290530    Uiso  ? C
   H649       1.0     0.365015     0.404383     0.332371    Uiso  ? H
   C958       1.0     0.354742     0.384135     0.262790    Uiso  ? C
   H650       1.0     0.389269     0.381969     0.231830    Uiso  ? H
   H651       1.0     0.328733     0.386886     0.303266    Uiso  ? H
   C959       1.0     0.334744     0.371384     0.243443    Uiso  ? C
   C960       1.0     0.325083     0.344106     0.247824    Uiso  ? C
   C961       1.0     0.323134     0.389525     0.222786    Uiso  ? C
   C962       1.0     0.301271     0.333958     0.233564    Uiso  ? C
   H652       1.0     0.332769     0.331804     0.264699    Uiso  ? H
   C963       1.0     0.300480     0.378650     0.207542    Uiso  ? C
   H653       1.0     0.329613     0.410477     0.219817    Uiso  ? H
   C964       1.0     0.288583     0.351215     0.213719    Uiso  ? C
   H654       1.0     0.294942     0.311985     0.237646    Uiso  ? H
   H655       1.0     0.291455     0.393245     0.192127    Uiso  ? H
   C965       1.0     0.260837     0.342962     0.199603    Uiso  ? C
   H656       1.0     0.259908     0.349070     0.176865    Uiso  ? H
   H657       1.0     0.258624     0.318469     0.197858    Uiso  ? H
   N39        1.0     0.235390     0.350817     0.214386    Uiso  ? N
   C966       1.0     0.208608     0.346402     0.205798    Uiso  ? C
   C967       1.0     0.235131     0.366461     0.238629    Uiso  ? C
   C968       1.0     0.191472     0.358570     0.226234    Uiso  ? C
   H658       1.0     0.203250     0.335548     0.187265    Uiso  ? H
   H659       1.0     0.255205     0.375049     0.249036    Uiso  ? H
   H660       1.0     0.168899     0.359034     0.227411    Uiso  ? H
   N40        1.0     0.208182     0.371831     0.244888    Uiso  ? N
   C969       1.0     0.382001     0.506153     0.650906    Uiso  ? C
   C970       1.0     0.403872     0.524812     0.657515    Uiso  ? C
   C971       1.0     0.382166     0.539972     0.620318    Uiso  ? C
   N41        1.0     0.369078     0.516223     0.627471    Uiso  ? N
   H661       1.0     0.376276     0.488714     0.662460    Uiso  ? H
   H662       1.0     0.413838     0.523684     0.675219    Uiso  ? H
   H663       1.0     0.372516     0.554322     0.604292    Uiso  ? H
   N42        1.0     0.403919     0.546560     0.638032    Uiso  ? N
   C972       1.0     0.418406     0.574054     0.640705    Uiso  ? C
   H664       1.0     0.440983     0.573147     0.649842    Uiso  ? H
   H665       1.0     0.420754     0.580593     0.618902    Uiso  ? H
   C973       1.0     0.401818     0.592827     0.658075    Uiso  ? C
   C974       1.0     0.379195     0.609308     0.647074    Uiso  ? C
   C975       1.0     0.406619     0.593287     0.686875    Uiso  ? C
   C976       1.0     0.360831     0.622561     0.666305    Uiso  ? C
   H666       1.0     0.374144     0.609261     0.625027    Uiso  ? H
   C977       1.0     0.386359     0.604088     0.705628    Uiso  ? C
   H667       1.0     0.423683     0.580688     0.694888    Uiso  ? H
   C978       1.0     0.365242     0.620580     0.695342    Uiso  ? C
   H668       1.0     0.344789     0.636256     0.658808    Uiso  ? H
   H669       1.0     0.387041     0.602320     0.729142    Uiso  ? H
   C979       1.0     0.346124     0.634376     0.717402    Uiso  ? C
   C980       1.0     0.318784     0.624617     0.724562    Uiso  ? C
   C981       1.0     0.356228     0.659049     0.730549    Uiso  ? C
   C982       1.0     0.301396     0.638515     0.744784    Uiso  ? C
   H670       1.0     0.309929     0.605372     0.715429    Uiso  ? H
   C983       1.0     0.341463     0.671369     0.753186    Uiso  ? C
   H671       1.0     0.377732     0.667152     0.725083    Uiso  ? H
   C984       1.0     0.313945     0.661906     0.761104    Uiso  ? C
   H672       1.0     0.280565     0.633314     0.747372    Uiso  ? H
   H673       1.0     0.352181     0.685619     0.765174    Uiso  ? H
   C985       1.0     0.299662     0.672277     0.788202    Uiso  ? C
   H674       1.0     0.305800     0.694917     0.791987    Uiso  ? H
   H675       1.0     0.275712     0.671478     0.786477    Uiso  ? H
   N43        1.0     0.309359     0.654952     0.812316    Uiso  ? N
   C986       1.0     0.299535     0.656586     0.838473    Uiso  ? C
   C987       1.0     0.330088     0.635314     0.813365    Uiso  ? C
   C988       1.0     0.316745     0.638415     0.855340    Uiso  ? C
   H676       1.0     0.280474     0.665418     0.843233    Uiso  ? H
   H677       1.0     0.341224     0.629488     0.794773    Uiso  ? H
   H678       1.0     0.314802     0.635919     0.880064    Uiso  ? H
   N44        1.0     0.336389     0.626461     0.839320    Uiso  ? N
   C989       1.0     0.695511     0.474412     0.602955    Uiso  ? C
   C990       1.0     0.711112     0.485323     0.581157    Uiso  ? C
   C991       1.0     0.677639     0.513498     0.589449    Uiso  ? C
   N45        1.0     0.674447     0.491321     0.607564    Uiso  ? N
   H679       1.0     0.699994     0.456029     0.615392    Uiso  ? H
   H680       1.0     0.731674     0.475649     0.572874    Uiso  ? H
   H681       1.0     0.663892     0.531903     0.586691    Uiso  ? H
   N46        1.0     0.699924     0.509950     0.571851    Uiso  ? N
   C992       1.0     0.712227     0.530475     0.553282    Uiso  ? C
   H682       1.0     0.726424     0.517620     0.539751    Uiso  ? H
   H683       1.0     0.693635     0.543200     0.543676    Uiso  ? H
   C993       1.0     0.729423     0.551492     0.571696    Uiso  ? C
   C994       1.0     0.721725     0.579018     0.575818    Uiso  ? C
   C995       1.0     0.753429     0.541931     0.585057    Uiso  ? C
   C996       1.0     0.731335     0.595224     0.598114    Uiso  ? C
   H684       1.0     0.705500     0.589789     0.561505    Uiso  ? H
   C997       1.0     0.765493     0.557641     0.607921    Uiso  ? C
   H685       1.0     0.758166     0.519901     0.579360    Uiso  ? H
   C998       1.0     0.752167     0.582581     0.616377    Uiso  ? C
   H686       1.0     0.723630     0.615887     0.599877    Uiso  ? H
   H687       1.0     0.780849     0.546649     0.621723    Uiso  ? H
   C999       1.0     0.759274     0.595661     0.644293    Uiso  ? C
   C1000      1.0     0.759223     0.575353     0.667646    Uiso  ? C
   C1001      1.0     0.767373     0.622966     0.648683    Uiso  ? C
   C1002      1.0     0.766754     0.585491     0.694715    Uiso  ? C
   H688       1.0     0.753437     0.553836     0.665033    Uiso  ? H
   C1003      1.0     0.775550     0.632879     0.675349    Uiso  ? C
   H689       1.0     0.765692     0.639036     0.632869    Uiso  ? H
   C1004      1.0     0.775421     0.613937     0.698754    Uiso  ? C
   H690       1.0     0.764897     0.571888     0.713886    Uiso  ? H
   H691       1.0     0.782398     0.653161     0.679797    Uiso  ? H
   C1005      1.0     0.786419     0.624104     0.727938    Uiso  ? C
   H692       1.0     0.781578     0.648059     0.733508    Uiso  ? H
   H693       1.0     0.777746     0.610908     0.744561    Uiso  ? H
   N47        1.0     0.816774     0.620018     0.728400    Uiso  ? N
   C1006      1.0     0.835757     0.639511     0.718989    Uiso  ? C
   C1007      1.0     0.828798     0.594209     0.720600    Uiso  ? C
   C1008      1.0     0.856827     0.625480     0.703076    Uiso  ? C
   H694       1.0     0.834619     0.662470     0.724576    Uiso  ? H
   H695       1.0     0.817137     0.573287     0.723402    Uiso  ? H
   H696       1.0     0.874222     0.634903     0.690139    Uiso  ? H
   N48        1.0     0.851399     0.597583     0.702724    Uiso  ? N
   C1009      1.0     0.811989     0.654799     0.787882    Uiso  ? C
   C1010      1.0     0.840025     0.655204     0.792483    Uiso  ? C
   C1011      1.0     0.823300     0.615595     0.806235    Uiso  ? C
   N49        1.0     0.801749     0.630134     0.797979    Uiso  ? N
   H697       1.0     0.798801     0.670835     0.778607    Uiso  ? H
   H698       1.0     0.853535     0.673099     0.792246    Uiso  ? H
   H699       1.0     0.820920     0.593547     0.813270    Uiso  ? H
   N50        1.0     0.847355     0.629473     0.803405    Uiso  ? N
   C1012      1.0     0.875341     0.619749     0.813929    Uiso  ? C
   H700       1.0     0.884270     0.601082     0.800103    Uiso  ? H
   H701       1.0     0.891655     0.636995     0.812119    Uiso  ? H
   C1013      1.0     0.872227     0.611027     0.844776    Uiso  ? C
   C1014      1.0     0.879253     0.584145     0.852951    Uiso  ? C
   C1015      1.0     0.859773     0.629465     0.863616    Uiso  ? C
   C1016      1.0     0.874268     0.573751     0.880888    Uiso  ? C
   H702       1.0     0.886504     0.569162     0.837546    Uiso  ? H
   C1017      1.0     0.853584     0.618365     0.890500    Uiso  ? C
   H703       1.0     0.849996     0.648712     0.855592    Uiso  ? H
   C1018      1.0     0.862352     0.591118     0.899176    Uiso  ? C
   H704       1.0     0.877585     0.551522     0.884623    Uiso  ? H
   H705       1.0     0.842283     0.635236     0.103205    Uiso  ? H
   C1019      1.0     0.858001     0.584236     0.128648    Uiso  ? C
   C1020      1.0     0.880557     0.585069     0.147696    Uiso  ? C
   C1021      1.0     0.830388     0.580786     0.140237    Uiso  ? C
   C1022      1.0     0.876576     0.587339     0.177585    Uiso  ? C
   H706       1.0     0.106829     0.585773     0.139133    Uiso  ? H
   C1023      1.0     0.826372     0.585974     0.170551    Uiso  ? C
   H707       1.0     0.811891     0.578306     0.123974    Uiso  ? H
   C1024      1.0     0.849748     0.589109     0.189028    Uiso  ? C
   H708       1.0     0.894908     0.591337     0.190056    Uiso  ? H
   H709       1.0     0.805153     0.587218     0.178204    Uiso  ? H
   C1025      1.0     0.844720     0.594323     0.219753    Uiso  ? C
   H710       1.0     0.833627     0.577187     0.230160    Uiso  ? H
   H711       1.0     0.864917     0.598041     0.233150    Uiso  ? H
   N51        1.0     0.830017     0.621605     0.223572    Uiso  ? N
   C1026      1.0     0.818663     0.629778     0.248072    Uiso  ? C
   C1027      1.0     0.834415     0.644127     0.207271    Uiso  ? C
   C1028      1.0     0.814524     0.659087     0.245174    Uiso  ? C
   H712       1.0     0.812680     0.617203     0.266715    Uiso  ? H
   H713       1.0     0.848813     0.644072     0.189014    Uiso  ? H
   H714       1.0     0.806618     0.672910     0.261429    Uiso  ? H
   N52        1.0     0.826236     0.667957     0.220705    Uiso  ? N
   C1029      1.0     0.604834     0.242950     0.724892    Uiso  ? C
   C1030      1.0     0.619605     0.217821     0.730089    Uiso  ? C
   C1031      1.0     0.614333     0.238603     0.769391    Uiso  ? C
   N53        1.0     0.603085     0.256191     0.749589    Uiso  ? N
   H715       1.0     0.599041     0.251882     0.703343    Uiso  ? H
   H716       1.0     0.630209     0.203746     0.715522    Uiso  ? H
   H717       1.0     0.619077     0.245479     0.790165    Uiso  ? H
   N54        1.0     0.622691     0.213972     0.758677    Uiso  ? N
   C1032      1.0     0.638305     0.192205     0.773287    Uiso  ? C
   H718       1.0     0.637184     0.170437     0.761492    Uiso  ? H
   H719       1.0     0.662684     0.196018     0.773548    Uiso  ? H
   C1033      1.0     0.627536     0.184530     0.801890    Uiso  ? C
   C1034      1.0     0.645329     0.177135     0.824160    Uiso  ? C
   C1035      1.0     0.597299     0.182148     0.806337    Uiso  ? C
   C1036      1.0     0.635760     0.169119     0.850745    Uiso  ? C
   H720       1.0     0.666266     0.174541     0.820171    Uiso  ? H
   C1037      1.0     0.587803     0.175384     0.832883    Uiso  ? C
   H721       1.0     0.583236     0.184672     0.788475    Uiso  ? H
   C1038      1.0     0.606144     0.169342     0.855357    Uiso  ? C
   H722       1.0     0.650321     0.166330     0.869125    Uiso  ? H
   H723       1.0     0.564374     0.177985     0.836364    Uiso  ? H
   C1039      1.0     0.596587     0.165484     0.884055    Uiso  ? C
   C1040      1.0     0.585324     0.191037     0.896797    Uiso  ? C
   C1041      1.0     0.596536     0.139889     0.897946    Uiso  ? C
   C1042      1.0     0.579688     0.190961     0.125924    Uiso  ? C
   H724       1.0     0.583821     0.211257     0.886401    Uiso  ? H
   C1043      1.0     0.584891     0.139308     0.124780    Uiso  ? C
   H725       1.0     0.601909     0.120762     0.886028    Uiso  ? H
   C1044      1.0     0.575510     0.164128     0.139258    Uiso  ? C
   H726       1.0     0.574277     0.210880     0.135498    Uiso  ? H
   H727       1.0     0.580709     0.120468     0.133446    Uiso  ? H
   C1045      1.0     0.563476     0.161616     0.169934    Uiso  ? C
   H728       1.0     0.548779     0.178774     0.175623    Uiso  ? H
   H729       1.0     0.551074     0.141133     0.171165    Uiso  ? H
   N55        1.0     0.587043     0.161116     0.189995    Uiso  ? N
   C1046      1.0     0.584520     0.155287     0.218532    Uiso  ? C
   C1047      1.0     0.614868     0.162377     0.184334    Uiso  ? C
   C1048      1.0     0.611570     0.153738     0.228517    Uiso  ? C
   H730       1.0     0.566350     0.148066     0.229710    Uiso  ? H
   H731       1.0     0.625296     0.168574     0.163942    Uiso  ? H
   H732       1.0     0.618727     0.151871     0.250838    Uiso  ? H
   N56        1.0     0.630967     0.160455     0.208447    Uiso  ? N
   C1049      1.0     0.344382     0.112503     0.833064    Uiso  ? C
   C1050      1.0     0.372730     0.111402     0.826512    Uiso  ? C
   C1051      1.0     0.352862     0.864018     0.818180    Uiso  ? C
   N57        1.0     0.331145     0.880769     0.827572    Uiso  ? N
   H733       1.0     0.332101     0.129673     0.839490    Uiso  ? H
   H734       1.0     0.388858     0.128429     0.824651    Uiso  ? H
   H735       1.0     0.350037     0.842410     0.813689    Uiso  ? H
   N58        1.0     0.377378     0.879637     0.816657    Uiso  ? N
   C1052      1.0     0.405451     0.867660     0.809245    Uiso  ? C
   H736       1.0     0.403026     0.846263     0.799690    Uiso  ? H
   H737       1.0     0.418668     0.882643     0.793791    Uiso  ? H
   C1053      1.0     0.422562     0.863677     0.835406    Uiso  ? C
   C1054      1.0     0.411341     0.849714     0.858449    Uiso  ? C
   C1055      1.0     0.452146     0.872348     0.835056    Uiso  ? C
   C1056      1.0     0.428889     0.844487     0.881789    Uiso  ? C
   H738       1.0     0.390222     0.842736     0.858926    Uiso  ? H
   C1057      1.0     0.469653     0.863147     0.856539    Uiso  ? C
   H739       1.0     0.460461     0.880606     0.816281    Uiso  ? H
   C1058      1.0     0.457725     0.851390     0.880937    Uiso  ? C
   H740       1.0     0.418794     0.839031     0.100000    Uiso  ? H
   H741       1.0     0.492881     0.864355     0.852627    Uiso  ? H
   C1059      1.0     0.476243     0.842760     0.103567    Uiso  ? C
   C1060      1.0     0.500181     0.858840     0.111363    Uiso  ? C
   C1061      1.0     0.470058     0.815812     0.116098    Uiso  ? C
   C1062      1.0     0.518201     0.848546     0.132270    Uiso  ? C
   H742       1.0     0.504218     0.880027     0.102059    Uiso  ? H
   C1063      1.0     0.485829     0.809579     0.139428    Uiso  ? C
   H743       1.0     0.451693     0.802567     0.111025    Uiso  ? H
   C1064      1.0     0.511825     0.823233     0.147997    Uiso  ? C
   H744       1.0     0.534051     0.863251     0.140392    Uiso  ? H
   H745       1.0     0.477691     0.792237     0.153052    Uiso  ? H
   C1065      1.0     0.527855     0.817590     0.176309    Uiso  ? C
   H746       1.0     0.552090     0.820405     0.173904    Uiso  ? H
   H747       1.0     0.519182     0.834220     0.190667    Uiso  ? H
   N59        1.0     0.520695     0.789886     0.187280    Uiso  ? N
   C1066      1.0     0.510024     0.781735     0.212939    Uiso  ? C
   C1067      1.0     0.526834     0.765033     0.174802    Uiso  ? C
   C1068      1.0     0.508892     0.754041     0.215183    Uiso  ? C
   H748       1.0     0.502529     0.796690     0.228112    Uiso  ? H
   H749       1.0     0.534805     0.761531     0.153141    Uiso  ? H
   H750       1.0     0.497468     0.742390     0.230024    Uiso  ? H
   N60        1.0     0.518491     0.742596     0.190139    Uiso  ? N
   C1069      1.0     0.141911     0.379390     0.808810    Uiso  ? C
   C1070      1.0     0.156131     0.396282     0.788560    Uiso  ? C
   C1071      1.0     0.173148     0.352993     0.788967    Uiso  ? C
   N61        1.0     0.153210     0.352404     0.809026    Uiso  ? N
   H751       1.0     0.127441     0.386185     0.825010    Uiso  ? H
   H752       1.0     0.153373     0.419065     0.782414    Uiso  ? H
   H753       1.0     0.184570     0.334596     0.783694    Uiso  ? H
   N62        1.0     0.176400     0.379252     0.776714    Uiso  ? N
   C1072      1.0     0.196050     0.385822     0.753898    Uiso  ? C
   H754       1.0     0.186703     0.379977     0.734118    Uiso  ? H
   H755       1.0     0.199068     0.409281     0.752319    Uiso  ? H
   C1073      1.0     0.224210     0.371272     0.760670    Uiso  ? C
   C1074      1.0     0.243063     0.384527     0.779586    Uiso  ? C
   C1075      1.0     0.230591     0.344791     0.748069    Uiso  ? C
   C1076      1.0     0.265568     0.368996     0.790512    Uiso  ? C
   H756       1.0     0.239258     0.407304     0.785915    Uiso  ? H
   C1077      1.0     0.254006     0.330518     0.759273    Uiso  ? C
   H757       1.0     0.218232     0.337031     0.729903    Uiso  ? H
   C1078      1.0     0.268418     0.341444     0.782708    Uiso  ? C
   H758       1.0     0.278571     0.377215     0.806402    Uiso  ? H
   H759       1.0     0.259313     0.308797     0.753071    Uiso  ? H
   C1079      1.0     0.286040     0.322301     0.800446    Uiso  ? C
   C1080      1.0     0.279548     0.314215     0.828310    Uiso  ? C
   C1081      1.0     0.309961     0.309107     0.786532    Uiso  ? C
   C1082      1.0     0.297657     0.298577     0.844119    Uiso  ? C
   H760       1.0     0.260415     0.322487     0.837847    Uiso  ? H
   C1083      1.0     0.327792     0.291421     0.802574    Uiso  ? C
   H761       1.0     0.314713     0.314901     0.765057    Uiso  ? H
   C1084      1.0     0.322538     0.287396     0.832843    Uiso  ? C
   H762       1.0     0.293821     0.295987     0.866993    Uiso  ? H
   H763       1.0     0.345499     0.281396     0.790957    Uiso  ? H
   C1085      1.0     0.346251     0.275644     0.850844    Uiso  ? C
   H764       1.0     0.338218     0.256485     0.859647    Uiso  ? H
   H765       1.0     0.364309     0.270731     0.839604    Uiso  ? H
   N63        1.0     0.352932     0.295671     0.873279    Uiso  ? N
   C1086      1.0     0.345708     0.294736     0.900000    Uiso  ? C
   C1087      1.0     0.370263     0.317718     0.870825    Uiso  ? C
   C1088      1.0     0.357616     0.318454     0.112494    Uiso  ? C
   H766       1.0     0.330609     0.279478     0.107689    Uiso  ? H
   H767       1.0     0.377726     0.325741     0.849229    Uiso  ? H
   H768       1.0     0.352326     0.321518     0.133258    Uiso  ? H
   N64        1.0     0.371889     0.333996     0.894701    Uiso  ? N
   C1089      1.0     0.424321     0.185465     0.810056    Uiso  ? C
   C1090      1.0     0.441945     0.181281     0.833604    Uiso  ? C
   C1091      1.0     0.463587     0.207190     0.802284    Uiso  ? C
   N65        1.0     0.437899     0.202879     0.791369    Uiso  ? N
   H769       1.0     0.404326     0.174827     0.806046    Uiso  ? H
   H770       1.0     0.440519     0.166633     0.851476    Uiso  ? H
   H771       1.0     0.481614     0.212665     0.791896    Uiso  ? H
   N66        1.0     0.467150     0.193038     0.827498    Uiso  ? N
   C1092      1.0     0.493538     0.190800     0.843882    Uiso  ? C
   H772       1.0     0.508697     0.204723     0.836480    Uiso  ? H
   H773       1.0     0.491408     0.197065     0.866315    Uiso  ? H
   C1093      1.0     0.508483     0.163070     0.837371    Uiso  ? C
   C1094      1.0     0.508708     0.150552     0.810139    Uiso  ? C
   C1095      1.0     0.522597     0.149933     0.860872    Uiso  ? C
   C1096      1.0     0.524553     0.126424     0.806245    Uiso  ? C
   H774       1.0     0.496107     0.159022     0.793287    Uiso  ? H
   C1097      1.0     0.538186     0.124542     0.855969    Uiso  ? C
   H775       1.0     0.522813     0.158312     0.882139    Uiso  ? H
   C1098      1.0     0.538063     0.112175     0.828405    Uiso  ? C
   H776       1.0     0.523646     0.116416     0.785720    Uiso  ? H
   H777       1.0     0.548864     0.113924     0.875240    Uiso  ? H
   C1099      1.0     0.554595     0.880830     0.822894    Uiso  ? C
   C1100      1.0     0.552641     0.858516     0.843956    Uiso  ? C
   C1101      1.0     0.568874     0.875303     0.796987    Uiso  ? C
   C1102      1.0     0.564612     0.832308     0.838583    Uiso  ? C
   H778       1.0     0.539722     0.859430     0.861904    Uiso  ? H
   C1103      1.0     0.579092     0.849260     0.791581    Uiso  ? C
   H779       1.0     0.570453     0.891455     0.780267    Uiso  ? H
   C1104      1.0     0.576439     0.826842     0.811343    Uiso  ? C
   H780       1.0     0.558703     0.813224     0.852663    Uiso  ? H
   H781       1.0     0.589826     0.847751     0.771733    Uiso  ? H
   C1105      1.0     0.583844     0.795450     0.804883    Uiso  ? C
   H782       1.0     0.567164     0.780609     0.809641    Uiso  ? H
   H783       1.0     0.586477     0.794344     0.781727    Uiso  ? H
   N67        1.0     0.609755     0.787154     0.820277    Uiso  ? N
   C1106      1.0     0.615686     0.761553     0.833085    Uiso  ? C
   C1107      1.0     0.634195     0.801088     0.822066    Uiso  ? C
   C1108      1.0     0.642714     0.761131     0.840609    Uiso  ? C
   H784       1.0     0.600410     0.744361     0.833163    Uiso  ? H
   H785       1.0     0.637983     0.823277     0.815016    Uiso  ? H
   H786       1.0     0.652341     0.743725     0.850454    Uiso  ? H
   N68        1.0     0.655723     0.785346     0.833216    Uiso  ? N
   C1109      1.0     0.164781     0.737515     0.585208    Uiso  ? C
   C1110      1.0     0.138702     0.725413     0.578080    Uiso  ? C
   C1111      1.0     0.145915     0.760815     0.551885    Uiso  ? C
   N69        1.0     0.169884     0.760220     0.568729    Uiso  ? N
   H787       1.0     0.176709     0.733043     0.605924    Uiso  ? H
   H788       1.0     0.129537     0.708291     0.588635    Uiso  ? H
   H789       1.0     0.141131     0.778822     0.536804    Uiso  ? H
   N70        1.0     0.127021     0.740519     0.557169    Uiso  ? N
   C1112      1.0     0.891547     0.743516     0.549702    Uiso  ? C
   H790       1.0     0.890769     0.739997     0.527222    Uiso  ? H
   H791       1.0     0.878206     0.727142     0.558858    Uiso  ? H
   C1113      1.0     0.879944     0.773108     0.555344    Uiso  ? C
   C1114      1.0     0.878126     0.794021     0.532470    Uiso  ? C
   C1115      1.0     0.880690     0.784693     0.582734    Uiso  ? C
   C1116      1.0     0.872889     0.823254     0.538458    Uiso  ? C
   H792       1.0     0.879703     0.789286     0.510696    Uiso  ? H
   C1117      1.0     0.878948     0.814159     0.586808    Uiso  ? C
   H793       1.0     0.883247     0.772233     0.601613    Uiso  ? H
   C1118      1.0     0.875529     0.834021     0.565465    Uiso  ? C
   H794       1.0     0.869881     0.835187     0.520622    Uiso  ? H
   H795       1.0     0.876791     0.819273     0.609875    Uiso  ? H
   C1119      1.0     0.870761     0.863393     0.571603    Uiso  ? C
   C1120      1.0     0.847001     0.873399     0.585178    Uiso  ? C
   C1121      1.0     0.892388     0.881725     0.564771    Uiso  ? C
   C1122      1.0     0.846670     0.107750     0.592876    Uiso  ? C
   H796       1.0     0.832395     0.857433     0.594409    Uiso  ? H
   C1123      1.0     0.892327     0.115119     0.573052    Uiso  ? C
   H797       1.0     0.115840     0.871954     0.554793    Uiso  ? H
   C1124      1.0     0.867965     0.125786     0.585244    Uiso  ? C
   H798       1.0     0.834061     0.115087     0.610157    Uiso  ? H
   H799       1.0     0.115826     0.126896     0.568137    Uiso  ? H
   C1125      1.0     0.866772     0.157739     0.593016    Uiso  ? C
   H800       1.0     0.874677     0.169800     0.575371    Uiso  ? H
   H801       1.0     0.843376     0.163825     0.597813    Uiso  ? H
   N71        1.0     0.885606     0.163148     0.618338    Uiso  ? N
   C1126      1.0     0.105968     0.187991     0.621602    Uiso  ? C
   C1127      1.0     0.888177     0.147191     0.642456    Uiso  ? C
   C1128      1.0     0.118891     0.185579     0.646898    Uiso  ? C
   H802       1.0     0.110136     0.202124     0.604120    Uiso  ? H
   H803       1.0     0.879326     0.126617     0.644942    Uiso  ? H
   H804       1.0     0.130264     0.201919     0.656813    Uiso  ? H
   N72        1.0     0.112333     0.160573     0.659863    Uiso  ? N
   C1129      1.0     0.302964     0.250383     0.257972    Uiso  ? C
   C1130      1.0     0.330730     0.247984     0.263932    Uiso  ? C
   C1131      1.0     0.319836     0.217363     0.233193    Uiso  ? C
   N73        1.0     0.296512     0.231666     0.237222    Uiso  ? N
   H805       1.0     0.286015     0.260332     0.270333    Uiso  ? H
   H806       1.0     0.340535     0.258382     0.282285    Uiso  ? H
   H807       1.0     0.318541     0.200081     0.218536    Uiso  ? H
   N74        1.0     0.341885     0.226221     0.249674    Uiso  ? N
   C1132      1.0     0.370935     0.213103     0.254390    Uiso  ? C
   H808       1.0     0.386749     0.225388     0.243135    Uiso  ? H
   H809       1.0     0.375132     0.211713     0.277366    Uiso  ? H
   C1133      1.0     0.370782     0.182610     0.244360    Uiso  ? C
   C1134      1.0     0.390941     0.172983     0.224198    Uiso  ? C
   C1135      1.0     0.350528     0.163189     0.254903    Uiso  ? C
   C1136      1.0     0.388417     0.144757     0.212082    Uiso  ? C
   H810       1.0     0.408115     0.186872     0.217178    Uiso  ? H
   C1137      1.0     0.348811     0.135972     0.242533    Uiso  ? C
   H811       1.0     0.334973     0.169933     0.270782    Uiso  ? H
   C1138      1.0     0.369667     0.126210     0.223621    Uiso  ? C
   H812       1.0     0.403711     0.139291     0.195834    Uiso  ? H
   H813       1.0     0.331306     0.121352     0.249753    Uiso  ? H
   C1139      1.0     0.367679     0.890985     0.214931    Uiso  ? C
   C1140      1.0     0.342646     0.876860     0.206197    Uiso  ? C
   C1141      1.0     0.391543     0.874851     0.220707    Uiso  ? C
   C1142      1.0     0.341573     0.847075     0.207699    Uiso  ? C
   H814       1.0     0.326408     0.888654     0.198505    Uiso  ? H
   C1143      1.0     0.391376     0.845566     0.219524    Uiso  ? C
   H815       1.0     0.409875     0.884022     0.232027    Uiso  ? H
   C1144      1.0     0.365208     0.831781     0.216194    Uiso  ? C
   H816       1.0     0.322373     0.835496     0.201133    Uiso  ? H
   H817       1.0     0.410932     0.833779     0.223615    Uiso  ? H
   C1145      1.0     0.368440     0.800274     0.215556    Uiso  ? C
   H818       1.0     0.347777     0.788288     0.212756    Uiso  ? H
   H819       1.0     0.381511     0.796173     0.196593    Uiso  ? H
   N75        1.0     0.382024     0.788574     0.241874    Uiso  ? N
   C1146      1.0     0.393376     0.762364     0.243964    Uiso  ? C
   C1147      1.0     0.380742     0.799522     0.267624    Uiso  ? C
   C1148      1.0     0.397887     0.756932     0.271497    Uiso  ? C
   H820       1.0     0.399932     0.749009     0.227091    Uiso  ? H
   H821       1.0     0.374165     0.820755     0.271988    Uiso  ? H
   H822       1.0     0.402632     0.737757     0.279828    Uiso  ? H
   N76        1.0     0.389955     0.780906     0.286484    Uiso  ? N
   C1149      1.0     0.874834     0.113487     0.396556    Uiso  ? C
   C1150      1.0     0.869624     0.112833     0.425149    Uiso  ? C
   C1151      1.0     0.830702     0.894730     0.402612    Uiso  ? C
   N77        1.0     0.851312     0.106056     0.382201    Uiso  ? N
   H823       1.0     0.895790     0.116440     0.387394    Uiso  ? H
   H824       1.0     0.886021     0.115681     0.442255    Uiso  ? H
   H825       1.0     0.808970     0.888391     0.398678    Uiso  ? H
   N78        1.0     0.843103     0.103392     0.428809    Uiso  ? N
   C1152      1.0     0.827518     0.895947     0.456216    Uiso  ? C
   H826       1.0     0.811465     0.879175     0.453205    Uiso  ? H
   H827       1.0     0.841380     0.887916     0.471382    Uiso  ? H
   C1153      1.0     0.816321     0.131271     0.464065    Uiso  ? C
   C1154      1.0     0.831475     0.149109     0.480665    Uiso  ? C
   C1155      1.0     0.788738     0.138200     0.455994    Uiso  ? C
   C1156      1.0     0.819875     0.175361     0.489611    Uiso  ? C
   H828       1.0     0.854086     0.142475     0.486657    Uiso  ? H
   C1157      1.0     0.775368     0.162790     0.466428    Uiso  ? C
   H829       1.0     0.777513     0.123656     0.441666    Uiso  ? H
   C1158      1.0     0.792186     0.181156     0.483596    Uiso  ? C
   H830       1.0     0.834555     0.190011     0.500264    Uiso  ? H
   H831       1.0     0.753730     0.168873     0.459622    Uiso  ? H
   C1159      1.0     0.778513     0.208023     0.494637    Uiso  ? C
   C1160      1.0     0.769395     0.208807     0.523026    Uiso  ? C
   C1161      1.0     0.771213     0.230172     0.475877    Uiso  ? C
   C1162      1.0     0.747659     0.227917     0.530474    Uiso  ? C
   H832       1.0     0.774959     0.190759     0.538059    Uiso  ? H
   C1163      1.0     0.751652     0.249811     0.485879    Uiso  ? C
   H833       1.0     0.776438     0.231816     0.452145    Uiso  ? H
   C1164      1.0     0.738812     0.249054     0.512793    Uiso  ? C
   H834       1.0     0.738931     0.224265     0.551410    Uiso  ? H
   H835       1.0     0.745692     0.265638     0.470871    Uiso  ? H
   C1165      1.0     0.715070     0.268242     0.521251    Uiso  ? C
   H836       1.0     0.712708     0.267505     0.544831    Uiso  ? H
   H837       1.0     0.717721     0.291733     0.517483    Uiso  ? H
   N79        1.0     0.688048     0.259650     0.507939    Uiso  ? N
   C1166      1.0     0.678991     0.268514     0.482619    Uiso  ? C
   C1167      1.0     0.668820     0.240576     0.516042    Uiso  ? C
   C1168      1.0     0.654871     0.257607     0.475540    Uiso  ? C
   H838       1.0     0.688338     0.285351     0.470375    Uiso  ? H
   H839       1.0     0.671450     0.228599     0.535495    Uiso  ? H
   H840       1.0     0.642964     0.260604     0.455589    Uiso  ? H
   N80        1.0     0.648699     0.237289     0.495794    Uiso  ? N
   C1169      1.0     0.144605     0.306091     0.680484    Uiso  ? C
   C1170      1.0     0.134120     0.291434     0.701414    Uiso  ? C
   C1171      1.0     0.145332     0.331162     0.716198    Uiso  ? C
   N81        1.0     0.155531     0.329469     0.689365    Uiso  ? N
   H841       1.0     0.145641     0.300609     0.658414    Uiso  ? H
   H842       1.0     0.123791     0.270364     0.699653    Uiso  ? H
   H843       1.0     0.150298     0.348890     0.728108    Uiso  ? H
   N82        1.0     0.133212     0.307411     0.724901    Uiso  ? N
   C1172      1.0     0.122715     0.303479     0.753987    Uiso  ? C
   H844       1.0     0.126875     0.280517     0.761227    Uiso  ? H
   H845       1.0     0.132664     0.317814     0.770146    Uiso  ? H
   C1173      1.0     0.886244     0.310041     0.754377    Uiso  ? C
   C1174      1.0     0.874983     0.337845     0.759406    Uiso  ? C
   C1175      1.0     0.865896     0.288333     0.749000    Uiso  ? C
   C1176      1.0     0.845920     0.344337     0.753294    Uiso  ? C
   H846       1.0     0.890273     0.354273     0.760379    Uiso  ? H
   C1177      1.0     0.836020     0.293388     0.746626    Uiso  ? C
   H847       1.0     0.873166     0.266292     0.747393    Uiso  ? H
   C1178      1.0     0.827645     0.322623     0.746613    Uiso  ? C
   H848       1.0     0.838533     0.366524     0.757283    Uiso  ? H
   H849       1.0     0.821713     0.276059     0.744695    Uiso  ? H
   C1179      1.0     0.797777     0.327803     0.740625    Uiso  ? C
   C1180      1.0     0.784971     0.311856     0.717921    Uiso  ? C
   C1181      1.0     0.781039     0.348549     0.754714    Uiso  ? C
   C1182      1.0     0.755510     0.313608     0.712930    Uiso  ? C
   H850       1.0     0.798174     0.297235     0.707523    Uiso  ? H
   C1183      1.0     0.751106     0.349199     0.749930    Uiso  ? C
   H851       1.0     0.787354     0.361416     0.770631    Uiso  ? H
   C1184      1.0     0.738556     0.332716     0.728858    Uiso  ? C
   H852       1.0     0.745877     0.301205     0.697016    Uiso  ? H
   H853       1.0     0.739819     0.365189     0.762308    Uiso  ? H
   C1185      1.0     0.707711     0.327112     0.729157    Uiso  ? C
   H854       1.0     0.694356     0.344657     0.739256    Uiso  ? H
   H855       1.0     0.698987     0.323812     0.706452    Uiso  ? H
   N83        1.0     0.701884     0.300128     0.743317    Uiso  ? N
   C1186      1.0     0.682344     0.280478     0.734833    Uiso  ? C
   C1187      1.0     0.716863     0.285779     0.764769    Uiso  ? C
   C1188      1.0     0.686511     0.255676     0.750687    Uiso  ? C
   H856       1.0     0.663970     0.284878     0.720286    Uiso  ? H
   H857       1.0     0.735023     0.295775     0.776657    Uiso  ? H
   H858       1.0     0.676308     0.233815     0.749555    Uiso  ? H
   N84        1.0     0.709207     0.258190     0.768575    Uiso  ? N
   C1189      1.0     0.285930     0.692611     0.552807    Uiso  ? C
   C1190      1.0     0.301283     0.703245     0.575513    Uiso  ? C
   C1191      1.0     0.256676     0.708781     0.582510    Uiso  ? C
   N85        1.0     0.258103     0.697050     0.556633    Uiso  ? N
   H859       1.0     0.294565     0.682626     0.533964    Uiso  ? H
   H860       1.0     0.324310     0.702295     0.576488    Uiso  ? H
   H861       1.0     0.235515     0.713683     0.591609    Uiso  ? H
   N86        1.0     0.282244     0.712838     0.594843    Uiso  ? N
   C1192      1.0     0.286703     0.728688     0.620521    Uiso  ? C
   H862       1.0     0.310219     0.732638     0.623177    Uiso  ? H
   H863       1.0     0.275199     0.748365     0.615761    Uiso  ? H
   C1193      1.0     0.274101     0.712903     0.645599    Uiso  ? C
   C1194      1.0     0.288337     0.691503     0.658772    Uiso  ? C
   C1195      1.0     0.246973     0.719913     0.654255    Uiso  ? C
   C1196      1.0     0.276659     0.676772     0.682517    Uiso  ? C
   H864       1.0     0.309196     0.683709     0.649090    Uiso  ? H
   C1197      1.0     0.234765     0.704184     0.676811    Uiso  ? C
   H865       1.0     0.234190     0.734067     0.640533    Uiso  ? H
   C1198      1.0     0.249415     0.684769     0.693038    Uiso  ? C
   H866       1.0     0.286169     0.660077     0.694019    Uiso  ? H
   H867       1.0     0.211348     0.703546     0.678619    Uiso  ? H
   C1199      1.0     0.234392     0.668860     0.713710    Uiso  ? C
   C1200      1.0     0.222344     0.641917     0.706995    Uiso  ? C
   C1201      1.0     0.228351     0.679731     0.741770    Uiso  ? C
   C1202      1.0     0.206134     0.627252     0.727726    Uiso  ? C
   H868       1.0     0.226242     0.632510     0.686145    Uiso  ? H
   C1203      1.0     0.209468     0.667402     0.761577    Uiso  ? C
   H869       1.0     0.239529     0.698609     0.747993    Uiso  ? H
   C1204      1.0     0.197156     0.641294     0.752965    Uiso  ? C
   H870       1.0     0.197243     0.607093     0.720437    Uiso  ? H
   H871       1.0     0.206382     0.675361     0.782498    Uiso  ? H
   C1205      1.0     0.172633     0.629736     0.771006    Uiso  ? C
   H872       1.0     0.168250     0.606671     0.763349    Uiso  ? H
   H873       1.0     0.181116     0.627767     0.793047    Uiso  ? H
   N87        1.0     0.149232     0.650011     0.769040    Uiso  ? N
   C1206      1.0     0.126142     0.649123     0.752800    Uiso  ? C
   C1207      1.0     0.147761     0.675240     0.782276    Uiso  ? C
   C1208      1.0     0.110981     0.672766     0.757372    Uiso  ? C
   H874       1.0     0.123117     0.634723     0.734540    Uiso  ? H
   H875       1.0     0.160293     0.682851     0.801125    Uiso  ? H
   H876       1.0     0.885019     0.678434     0.748838    Uiso  ? H
   N88        1.0     0.123588     0.688762     0.777000    Uiso  ? N
   C1209      1.0     0.108242     0.653388     0.243462    Uiso  ? C
   C1210      1.0     0.117857     0.658443     0.216758    Uiso  ? C
   C1211      1.0     0.137958     0.620753     0.231754    Uiso  ? C
   N89        1.0     0.121805     0.629594     0.253638    Uiso  ? N
   H877       1.0     0.889724     0.665412     0.257709    Uiso  ? H
   H878       1.0     0.109426     0.676145     0.204439    Uiso  ? H
   H879       1.0     0.149961     0.600569     0.232864    Uiso  ? H
   N90        1.0     0.135591     0.636940     0.208551    Uiso  ? N
   C1212      1.0     0.153072     0.635757     0.182469    Uiso  ? C
   H880       1.0     0.150281     0.614105     0.175830    Uiso  ? H
   H881       1.0     0.144198     0.649070     0.164412    Uiso  ? H
   C1213      1.0     0.183850     0.643233     0.188257    Uiso  ? C
   C1214      1.0     0.191287     0.671855     0.186070    Uiso  ? C
   C1215      1.0     0.205579     0.623363     0.190413    Uiso  ? C
   C1216      1.0     0.215706     0.681825     0.198140    Uiso  ? C
   H882       1.0     0.176232     0.689349     0.180305    Uiso  ? H
   C1217      1.0     0.230441     0.631904     0.202229    Uiso  ? C
   H883       1.0     0.203483     0.600362     0.187892    Uiso  ? H
   C1218      1.0     0.237796     0.662158     0.204880    Uiso  ? C
   H884       1.0     0.221312     0.704235     0.199257    Uiso  ? H
   H885       1.0     0.246801     0.616885     0.206748    Uiso  ? H
   C1219      1.0     0.264824     0.670744     0.215804    Uiso  ? C
   C1220      1.0     0.275235     0.660104     0.241018    Uiso  ? C
   C1221      1.0     0.281311     0.692656     0.201184    Uiso  ? C
   C1222      1.0     0.299482     0.672319     0.253440    Uiso  ? C
   H886       1.0     0.264044     0.644649     0.252851    Uiso  ? H
   C1223      1.0     0.304035     0.704394     0.213948    Uiso  ? C
   H887       1.0     0.274461     0.702878     0.181680    Uiso  ? H
   C1224      1.0     0.313880     0.694404     0.239801    Uiso  ? C
   H888       1.0     0.303901     0.665244     0.274371    Uiso  ? H
   H889       1.0     0.312763     0.723111     0.205896    Uiso  ? H
   C1225      1.0     0.327443     0.714398     0.259752    Uiso  ? C
   H890       1.0     0.336567     0.703357     0.277722    Uiso  ? H
   H891       1.0     0.345196     0.724311     0.247699    Uiso  ? H
   N91        1.0     0.306205     0.735059     0.269638    Uiso  ? N
   C1226      1.0     0.290508     0.730756     0.293186    Uiso  ? C
   C1227      1.0     0.294768     0.756309     0.254996    Uiso  ? C
   C1228      1.0     0.266131     0.747458     0.290911    Uiso  ? C
   H892       1.0     0.297623     0.715826     0.309192    Uiso  ? H
   H893       1.0     0.301421     0.762473     0.233816    Uiso  ? H
   H894       1.0     0.248209     0.746371     0.304326    Uiso  ? H
   N92        1.0     0.270245     0.763638     0.267779    Uiso  ? N
   C1229      1.0     0.855441     0.212285     0.419750    Uiso  ? C
   C1230      1.0     0.836232     0.193171     0.411505    Uiso  ? C
   C1231      1.0     0.817302     0.233713     0.411849    Uiso  ? C
   N93        1.0     0.843139     0.238658     0.423258    Uiso  ? N
   H895       1.0     0.877708     0.207518     0.422198    Uiso  ? H
   H896       1.0     0.841401     0.171847     0.404365    Uiso  ? H
   H897       1.0     0.803125     0.249866     0.408510    Uiso  ? H
   N94        1.0     0.812665     0.205640     0.406834    Uiso  ? N
   C1232      1.0     0.787033     0.193021     0.396412    Uiso  ? C
   H898       1.0     0.791972     0.173441     0.384744    Uiso  ? H
   H899       1.0     0.772547     0.187279     0.413337    Uiso  ? H
   C1233      1.0     0.770866     0.214068     0.376241    Uiso  ? C
   C1234      1.0     0.785344     0.220721     0.351040    Uiso  ? C
   C1235      1.0     0.747712     0.230814     0.385537    Uiso  ? C
   C1236      1.0     0.778776     0.244907     0.336775    Uiso  ? C
   H900       1.0     0.804040     0.208052     0.346078    Uiso  ? H
   C1237      1.0     0.739749     0.255394     0.370075    Uiso  ? C
   H901       1.0     0.737011     0.224623     0.403623    Uiso  ? H
   C1238      1.0     0.756423     0.263215     0.345841    Uiso  ? C
   H902       1.0     0.792690     0.250496     0.318319    Uiso  ? H
   H903       1.0     0.722083     0.269978     0.376396    Uiso  ? H
   C1239      1.0     0.754454     0.291671     0.332939    Uiso  ? C
   C1240      1.0     0.733285     0.298687     0.314073    Uiso  ? C
   C1241      1.0     0.776576     0.311247     0.337089    Uiso  ? C
   C1242      1.0     0.732556     0.325281     0.300771    Uiso  ? C
   H904       1.0     0.717927     0.282083     0.308122    Uiso  ? H
   C1243      1.0     0.776932     0.338000     0.323673    Uiso  ? C
   H905       1.0     0.795018     0.305421     0.349711    Uiso  ? H
   C1244      1.0     0.753405     0.346257     0.305578    Uiso  ? C
   H906       1.0     0.716151     0.329479     0.285153    Uiso  ? H
   H907       1.0     0.795995     0.350085     0.325652    Uiso  ? H
   C1245      1.0     0.756188     0.369492     0.284485    Uiso  ? C
   H908       1.0     0.738952     0.369930     0.269294    Uiso  ? H
   H909       1.0     0.755548     0.390004     0.295396    Uiso  ? H
   N95        1.0     0.781334     0.365274     0.268684    Uiso  ? N
   C1246      1.0     0.803246     0.384457     0.268567    Uiso  ? C
   C1247      1.0     0.790618     0.342218     0.256382    Uiso  ? C
   C1248      1.0     0.825339     0.370026     0.256469    Uiso  ? C
   H910       1.0     0.802703     0.406123     0.277209    Uiso  ? H
   H911       1.0     0.777341     0.323218     0.257391    Uiso  ? H
   H912       1.0     0.847393     0.376694     0.254293    Uiso  ? H
   N96        1.0     0.817442     0.343405     0.248031    Uiso  ? N
