
#======================================================================
# CRYSTAL DATA
#----------------------------------------------------------------------
data_VESTA_phase_1

_chemical_name_common                  ' Atoms. Timestep: 0'
_cell_length_a                         60.944839
_cell_length_b                         60.944839
_cell_length_c                         60.944839
_cell_angle_alpha                      90.000000
_cell_angle_beta                       90.000000
_cell_angle_gamma                      90.000000
_cell_volume                           1.000000
_space_group_name_H-M_alt              'P 1'
_space_group_IT_number                 1

loop_
_space_group_symop_operation_xyz
   'x, y, z'

loop_
   _atom_site_label
   _atom_site_occupancy
   _atom_site_fract_x
   _atom_site_fract_y
   _atom_site_fract_z
   _atom_site_adp_type
   _atom_site_U_iso_or_equiv
   _atom_site_type_symbol
   C1         1.0     0.846269     0.160424     0.221813    Uiso  ? C
   C2         1.0     0.831782     0.176980     0.212201    Uiso  ? C
   C3         1.0     0.828400     0.196854     0.223411    Uiso  ? C
   H1         1.0     0.837717     0.200221     0.238157    Uiso  ? H
   C4         1.0     0.813247     0.212721     0.215246    Uiso  ? C
   H2         1.0     0.810997     0.227618     0.223725    Uiso  ? H
   C5         1.0     0.801106     0.207817     0.195937    Uiso  ? C
   H3         1.0     0.790971     0.220571     0.190041    Uiso  ? H
   C6         1.0     0.803774     0.187829     0.185028    Uiso  ? C
   C7         1.0     0.819628     0.173208     0.193022    Uiso  ? C
   H4         1.0     0.822301     0.157253     0.184619    Uiso  ? H
   C8         1.0     0.789576     0.181972     0.166672    Uiso  ? C
   C9         1.0     0.843919     0.893020     0.247828    Uiso  ? C
   C10        1.0     0.828689     0.874910     0.252593    Uiso  ? C
   C11        1.0     0.817887     0.873750     0.273095    Uiso  ? C
   H5         1.0     0.822180     0.885605     0.286442    Uiso  ? H
   C12        1.0     0.801439     0.857822     0.276748    Uiso  ? C
   H6         1.0     0.792279     0.857040     0.292321    Uiso  ? H
   C13        1.0     0.795232     0.844052     0.259774    Uiso  ? C
   H7         1.0     0.780995     0.833819     0.261829    Uiso  ? H
   C14        1.0     0.804490     0.846274     0.239258    Uiso  ? C
   C15        1.0     0.821956     0.860415     0.236018    Uiso  ? C
   H8         1.0     0.829691     0.861486     0.219619    Uiso  ? H
   C16        1.0     0.793842     0.835110     0.220966    Uiso  ? C
   C17        1.0     0.114987     0.115277     0.249709    Uiso  ? C
   C18        1.0     0.135719     0.104673     0.256802    Uiso  ? C
   C19        1.0     0.139818     0.897041     0.279130    Uiso  ? C
   H9         1.0     0.129551     0.108236     0.291588    Uiso  ? H
   C20        1.0     0.158447     0.885387     0.285254    Uiso  ? C
   H10        1.0     0.162428     0.883875     0.302607    Uiso  ? H
   C21        1.0     0.171647     0.874958     0.269694    Uiso  ? C
   H11        1.0     0.185889     0.867052     0.275445    Uiso  ? H
   C22        1.0     0.166983     0.876751     0.247646    Uiso  ? C
   C23        1.0     0.149457     0.889723     0.241229    Uiso  ? C
   H12        1.0     0.146312     0.890718     0.223930    Uiso  ? H
   C24        1.0     0.180017     0.866173     0.230537    Uiso  ? C
   C25        1.0     0.897677     0.163504     0.232636    Uiso  ? C
   C26        1.0     0.116468     0.182785     0.229643    Uiso  ? C
   C27        1.0     0.116577     0.200164     0.244619    Uiso  ? C
   H13        1.0     0.105372     0.200332     0.258569    Uiso  ? H
   C28        1.0     0.132500     0.216549     0.244094    Uiso  ? C
   H14        1.0     0.133819     0.228809     0.256372    Uiso  ? H
   C29        1.0     0.148450     0.215945     0.227231    Uiso  ? C
   H15        1.0     0.160496     0.228944     0.226655    Uiso  ? H
   C30        1.0     0.148161     0.199513     0.211010    Uiso  ? C
   C31        1.0     0.131800     0.183088     0.212396    Uiso  ? C
   H16        1.0     0.132087     0.170349     0.200085    Uiso  ? H
   C32        1.0     0.164190     0.199978     0.192264    Uiso  ? C
   C33        1.0     0.748395     0.176797     0.893686    Uiso  ? C
   C34        1.0     0.740412     0.174991     0.870736    Uiso  ? C
   C35        1.0     0.718156     0.180451     0.865636    Uiso  ? C
   H17        1.0     0.706893     0.186011     0.878700    Uiso  ? H
   C36        1.0     0.710961     0.178280     0.844076    Uiso  ? C
   H18        1.0     0.694851     0.184408     0.839176    Uiso  ? H
   C37        1.0     0.725128     0.170114     0.827722    Uiso  ? C
   H19        1.0     0.718738     0.168468     0.811426    Uiso  ? H
   C38        1.0     0.747069     0.165755     0.832183    Uiso  ? C
   C39        1.0     0.754728     0.168248     0.853832    Uiso  ? C
   H20        1.0     0.772049     0.164856     0.857744    Uiso  ? H
   C40        1.0     0.762988     0.159315     0.814473    Uiso  ? C
   C41        1.0     0.736069     0.144023     0.155370    Uiso  ? C
   C42        1.0     0.726121     0.124818     0.166928    Uiso  ? C
   C43        1.0     0.703699     0.125123     0.172897    Uiso  ? C
   H21        1.0     0.693076     0.138329     0.168883    Uiso  ? H
   C44        1.0     0.693959     0.105870     0.182298    Uiso  ? C
   H22        1.0     0.676653     0.106310     0.185730    Uiso  ? H
   C45        1.0     0.705500     0.881893     0.185152    Uiso  ? C
   H23        1.0     0.697285     0.868078     0.191369    Uiso  ? H
   C46        1.0     0.728165     0.882441     0.180926    Uiso  ? C
   C47        1.0     0.738420     0.105561     0.170950    Uiso  ? C
   H24        1.0     0.755281     0.105774     0.166605    Uiso  ? H
   C48        1.0     0.742069     0.862477     0.183710    Uiso  ? C
   C49        1.0     0.780220     0.210760     0.125317    Uiso  ? C
   C50        1.0     0.791891     0.231430     0.120066    Uiso  ? C
   C51        1.0     0.784267     0.251138     0.129018    Uiso  ? C
   H25        1.0     0.769854     0.252245     0.139010    Uiso  ? H
   C52        1.0     0.794586     0.270732     0.122877    Uiso  ? C
   H26        1.0     0.790254     0.286204     0.128959    Uiso  ? H
   C53        1.0     0.813221     0.270928     0.108819    Uiso  ? C
   H27        1.0     0.820857     0.286271     0.104957    Uiso  ? H
   C54        1.0     0.820202     0.250122     0.900000    Uiso  ? C
   C55        1.0     0.810042     0.231198     0.105966    Uiso  ? C
   H28        1.0     0.815352     0.214682     0.898807    Uiso  ? H
   C56        1.0     0.840004     0.249264     0.885994    Uiso  ? C
   C57        1.0     0.762726     0.807188     0.149323    Uiso  ? C
   C58        1.0     0.759093     0.794109     0.129836    Uiso  ? C
   C59        1.0     0.744071     0.776631     0.130139    Uiso  ? C
   H29        1.0     0.736433     0.770954     0.145079    Uiso  ? H
   C60        1.0     0.739252     0.764999     0.111129    Uiso  ? C
   H30        1.0     0.727117     0.751702     0.111184    Uiso  ? H
   C61        1.0     0.748362     0.770184     0.891325    Uiso  ? C
   H31        1.0     0.742988     0.761064     0.877409    Uiso  ? H
   C62        1.0     0.764047     0.787319     0.890473    Uiso  ? C
   C63        1.0     0.769463     0.799276     0.110020    Uiso  ? C
   H32        1.0     0.780330     0.812539     0.109638    Uiso  ? H
   C64        1.0     0.775339     0.792900     0.870091    Uiso  ? C
   C65        1.0     0.792034     0.793371     0.186265    Uiso  ? C
   C66        1.0     0.804094     0.772270     0.182486    Uiso  ? C
   C67        1.0     0.793829     0.752161     0.186873    Uiso  ? C
   H33        1.0     0.777388     0.751544     0.192788    Uiso  ? H
   C68        1.0     0.804437     0.732228     0.183202    Uiso  ? C
   H34        1.0     0.796192     0.716660     0.185541    Uiso  ? H
   C69        1.0     0.826037     0.732028     0.175100    Uiso  ? C
   H35        1.0     0.834781     0.716222     0.173728    Uiso  ? H
   C70        1.0     0.836063     0.751961     0.169605    Uiso  ? C
   C71        1.0     0.825314     0.772332     0.173977    Uiso  ? C
   H36        1.0     0.833867     0.787895     0.168969    Uiso  ? H
   C72        1.0     0.857544     0.751795     0.158407    Uiso  ? C
   C73        1.0     0.864626     0.237000     0.821695    Uiso  ? C
   C74        1.0     0.854499     0.230299     0.800835    Uiso  ? C
   C75        1.0     0.853309     0.244530     0.782897    Uiso  ? C
   H37        1.0     0.860931     0.260118     0.783454    Uiso  ? H
   C76        1.0     0.841312     0.238707     0.764536    Uiso  ? C
   H38        1.0     0.838440     0.250491     0.750988    Uiso  ? H
   C77        1.0     0.829967     0.219005     0.763800    Uiso  ? C
   H39        1.0     0.821065     0.214923     0.749041    Uiso  ? H
   C78        1.0     0.830525     0.204520     0.781471    Uiso  ? C
   C79        1.0     0.843436     0.209884     0.800175    Uiso  ? C
   H40        1.0     0.843286     0.199320     0.814628    Uiso  ? H
   C80        1.0     0.816330     0.184414     0.781997    Uiso  ? C
   C81        1.0     0.114290     0.253847     0.888595    Uiso  ? C
   C82        1.0     0.131384     0.261319     0.103531    Uiso  ? C
   C83        1.0     0.136261     0.283057     0.108166    Uiso  ? C
   H41        1.0     0.126799     0.296167     0.100000    Uiso  ? H
   C84        1.0     0.151167     0.288969     0.124545    Uiso  ? C
   H42        1.0     0.154478     0.306078     0.127141    Uiso  ? H
   C85        1.0     0.162518     0.272861     0.136456    Uiso  ? C
   H43        1.0     0.175717     0.277626     0.147152    Uiso  ? H
   C86        1.0     0.159067     0.250767     0.130969    Uiso  ? C
   C87        1.0     0.142146     0.245493     0.116225    Uiso  ? C
   H44        1.0     0.138258     0.228475     0.113470    Uiso  ? H
   C88        1.0     0.171712     0.233215     0.142357    Uiso  ? C
   C89        1.0     0.211655     0.173066     0.186499    Uiso  ? C
   C90        1.0     0.222331     0.156196     0.199608    Uiso  ? C
   C91        1.0     0.236250     0.161817     0.216920    Uiso  ? C
   H45        1.0     0.240002     0.179049     0.219473    Uiso  ? H
   C92        1.0     0.246026     0.145994     0.230032    Uiso  ? C
   H46        1.0     0.257766     0.150906     0.242197    Uiso  ? H
   C93        1.0     0.241445     0.123861     0.226468    Uiso  ? C
   H47        1.0     0.248467     0.111643     0.236469    Uiso  ? H
   C94        1.0     0.227087     0.117424     0.209759    Uiso  ? C
   C95        1.0     0.218324     0.133763     0.196075    Uiso  ? C
   H48        1.0     0.208561     0.128787     0.182660    Uiso  ? H
   C96        1.0     0.219528     0.889413     0.206200    Uiso  ? C
   O1         1.0     0.851388     0.143788     0.210524    Uiso  ? O
   O2         1.0     0.854117     0.163617     0.241336    Uiso  ? O
   O3         1.0     0.861043     0.890870     0.235299    Uiso  ? O
   O4         1.0     0.841579     0.116048     0.257222    Uiso  ? O
   O5         1.0     0.112042     0.121181     0.229810    Uiso  ? O
   O6         1.0     0.896301     0.119061     0.264136    Uiso  ? O
   O7         1.0     0.104588     0.145913     0.221275    Uiso  ? O
   O8         1.0     0.881868     0.164323     0.246455    Uiso  ? O
   O9         1.0     0.768610     0.174501     0.898356    Uiso  ? O
   O10        1.0     0.734719     0.180800     0.109248    Uiso  ? O
   O11        1.0     0.750421     0.141443     0.140504    Uiso  ? O
   O12        1.0     0.730862     0.163229     0.161531    Uiso  ? O
   O13        1.0     0.795472     0.166902     0.153736    Uiso  ? O
   O14        1.0     0.771153     0.192020     0.163523    Uiso  ? O
   O15        1.0     0.783164     0.192595     0.114262    Uiso  ? O
   O16        1.0     0.767423     0.211000     0.141953    Uiso  ? O
   O17        1.0     0.774533     0.823596     0.148671    Uiso  ? O
   O18        1.0     0.754495     0.801092     0.167833    Uiso  ? O
   O19        1.0     0.801881     0.812194     0.184659    Uiso  ? O
   O20        1.0     0.771327     0.792685     0.188533    Uiso  ? O
   O21        1.0     0.804465     0.832639     0.203373    Uiso  ? O
   O22        1.0     0.773061     0.832742     0.221242    Uiso  ? O
   O23        1.0     0.762658     0.864848     0.187074    Uiso  ? O
   O24        1.0     0.733700     0.843465     0.182308    Uiso  ? O
   O25        1.0     0.872282     0.222551     0.835143    Uiso  ? O
   O26        1.0     0.862962     0.256561     0.827712    Uiso  ? O
   O27        1.0     0.846708     0.231042     0.879455    Uiso  ? O
   O28        1.0     0.850968     0.266169     0.882627    Uiso  ? O
   O29        1.0     0.105464     0.235240     0.889346    Uiso  ? O
   O30        1.0     0.107703     0.267646     0.874393    Uiso  ? O
   O31        1.0     0.104450     0.226655     0.843019    Uiso  ? O
   O32        1.0     0.110432     0.263001     0.846460    Uiso  ? O
   O33        1.0     0.172164     0.213998     0.134208    Uiso  ? O
   O34        1.0     0.183156     0.237394     0.159618    Uiso  ? O
   O35        1.0     0.158271     0.192459     0.174347    Uiso  ? O
   O36        1.0     0.183868     0.206471     0.194658    Uiso  ? O
   O37        1.0     0.205730     0.168267     0.167448    Uiso  ? O
   O38        1.0     0.208285     0.191951     0.194036    Uiso  ? O
   O39        1.0     0.190583     0.199239     0.121022    Uiso  ? O
   O40        1.0     0.221189     0.203534     0.138844    Uiso  ? O
   O41        1.0     0.818478     0.128779     0.771800    Uiso  ? O
   O42        1.0     0.787878     0.128622     0.753248    Uiso  ? O
   O43        1.0     0.780927     0.120771     0.805797    Uiso  ? O
   O44        1.0     0.768447     0.125318     0.771638    Uiso  ? O
   O45        1.0     0.777373     0.144803     0.818347    Uiso  ? O
   O46        1.0     0.761356     0.168142     0.795673    Uiso  ? O
   O47        1.0     0.812945     0.174938     0.799916    Uiso  ? O
   O48        1.0     0.806853     0.177536     0.764732    Uiso  ? O
   O49        1.0     0.876862     0.102701     0.188675    Uiso  ? O
   O50        1.0     0.792927     0.134335     0.109610    Uiso  ? O
   O51        1.0     0.808223     0.864696     0.159017    Uiso  ? O
   O52        1.0     0.876388     0.189718     0.880717    Uiso  ? O
   O53        1.0     0.165926     0.155432     0.135179    Uiso  ? O
   O54        1.0     0.832801     0.136858     0.823006    Uiso  ? O
   Zn1        1.0     0.875920     0.120658     0.217168    Uiso  ? Zn
   Zn2        1.0     0.867010     0.137918     0.262573    Uiso  ? Zn
   Zn3        1.0     0.776720     0.159078     0.126672    Uiso  ? Zn
   Zn4        1.0     0.741306     0.189026     0.142626    Uiso  ? Zn
   Zn5        1.0     0.787294     0.842746     0.175293    Uiso  ? Zn
   Zn6        1.0     0.750938     0.819123     0.198948    Uiso  ? Zn
   Zn7        1.0     0.877369     0.222548     0.869067    Uiso  ? Zn
   Zn8        1.0     0.873793     0.270601     0.856493    Uiso  ? Zn
   Zn9        1.0     0.179508     0.183326     0.150027    Uiso  ? Zn
   Zn10       1.0     0.207937     0.215415     0.168967    Uiso  ? Zn
   Zn11       1.0     0.807991     0.141580     0.801324    Uiso  ? Zn
   Zn12       1.0     0.777460     0.159074     0.767081    Uiso  ? Zn
   C97        1.0     0.137979     0.823245     0.757232    Uiso  ? C
   C98        1.0     0.153051     0.806313     0.766571    Uiso  ? C
   C99        1.0     0.157262     0.786778     0.755925    Uiso  ? C
   H49        1.0     0.150175     0.783140     0.740014    Uiso  ? H
   C100       1.0     0.170182     0.770689     0.765565    Uiso  ? C
   H50        1.0     0.170989     0.754314     0.758648    Uiso  ? H
   C101       1.0     0.180402     0.774984     0.785531    Uiso  ? C
   H51        1.0     0.189396     0.762727     0.793815    Uiso  ? H
   C102       1.0     0.178890     0.795646     0.795168    Uiso  ? C
   C103       1.0     0.163880     0.810736     0.786325    Uiso  ? C
   H52        1.0     0.162333     0.826909     0.793325    Uiso  ? H
   C104       1.0     0.191860     0.801534     0.815104    Uiso  ? C
   C105       1.0     0.141785     0.887137     0.735190    Uiso  ? C
   C106       1.0     0.160698     0.108142     0.732847    Uiso  ? C
   C107       1.0     0.172726     0.108971     0.713702    Uiso  ? C
   H53        1.0     0.168377     0.893315     0.700206    Uiso  ? H
   C108       1.0     0.191422     0.122688     0.712330    Uiso  ? C
   H54        1.0     0.200281     0.124548     0.696880    Uiso  ? H
   C109       1.0     0.196847     0.137016     0.729785    Uiso  ? C
   H55        1.0     0.210976     0.148068     0.728128    Uiso  ? H
   C110       1.0     0.185319     0.135647     0.749981    Uiso  ? C
   C111       1.0     0.167594     0.120419     0.751323    Uiso  ? C
   H56        1.0     0.158809     0.118186     0.766896    Uiso  ? H
   C112       1.0     0.191846     0.148621     0.769228    Uiso  ? C
   C113       1.0     0.871117     0.871735     0.731792    Uiso  ? C
   C114       1.0     0.849412     0.881869     0.726125    Uiso  ? C
   C115       1.0     0.840028     0.879437     0.705012    Uiso  ? C
   H57        1.0     0.849112     0.871193     0.692102    Uiso  ? H
   C116       1.0     0.820109     0.890431     0.700546    Uiso  ? C
   H58        1.0     0.813486     0.889695     0.683955    Uiso  ? H
   C117       1.0     0.809785     0.107341     0.716006    Uiso  ? C
   H59        1.0     0.795053     0.116140     0.711786    Uiso  ? H
   C118       1.0     0.818164     0.109051     0.737757    Uiso  ? C
   C119       1.0     0.837812     0.894237     0.742453    Uiso  ? C
   H60        1.0     0.845090     0.896385     0.758551    Uiso  ? H
   C120       1.0     0.807909     0.123179     0.754920    Uiso  ? C
   C121       1.0     0.882726     0.824164     0.753479    Uiso  ? C
   C122       1.0     0.868940     0.805189     0.760935    Uiso  ? C
   C123       1.0     0.871426     0.784033     0.751328    Uiso  ? C
   H61        1.0     0.882790     0.780940     0.738410    Uiso  ? H
   C124       1.0     0.859710     0.766371     0.760029    Uiso  ? C
   H62        1.0     0.860329     0.750035     0.752532    Uiso  ? H
   C125       1.0     0.844272     0.769469     0.776949    Uiso  ? C
   H63        1.0     0.834030     0.755451     0.781793    Uiso  ? H
   C126       1.0     0.842196     0.790355     0.786186    Uiso  ? C
   C127       1.0     0.854335     0.808084     0.778344    Uiso  ? C
   H64        1.0     0.853260     0.823613     0.787165    Uiso  ? H
   C128       1.0     0.825505     0.794311     0.803317    Uiso  ? C
   C129       1.0     0.229788     0.809390     0.888577    Uiso  ? C
   C130       1.0     0.237708     0.807236     0.110491    Uiso  ? C
   C131       1.0     0.254862     0.792171     0.115425    Uiso  ? C
   H65        1.0     0.261005     0.782881     0.101944    Uiso  ? H
   C132       1.0     0.261271     0.788625     0.137116    Uiso  ? C
   H66        1.0     0.271956     0.775371     0.140664    Uiso  ? H
   C133       1.0     0.252345     0.800794     0.153800    Uiso  ? C
   H67        1.0     0.258368     0.797911     0.169998    Uiso  ? H
   C134       1.0     0.236371     0.816846     0.149803    Uiso  ? C
   C135       1.0     0.228559     0.819068     0.127995    Uiso  ? C
   H68        1.0     0.216248     0.831037     0.125108    Uiso  ? H
   C136       1.0     0.226808     0.829285     0.168004    Uiso  ? C
   C137       1.0     0.235154     0.849456     0.832859    Uiso  ? C
   C138       1.0     0.242372     0.868839     0.820156    Uiso  ? C
   C139       1.0     0.258414     0.866233     0.803785    Uiso  ? C
   H69        1.0     0.266953     0.850916     0.801426    Uiso  ? H
   C140       1.0     0.263919     0.883767     0.790022    Uiso  ? C
   H70        1.0     0.277838     0.881962     0.778781    Uiso  ? H
   C141       1.0     0.254012     0.108339     0.792050    Uiso  ? C
   H71        1.0     0.259044     0.121749     0.781398    Uiso  ? H
   C142       1.0     0.238434     0.112043     0.808448    Uiso  ? C
   C143       1.0     0.232623     0.889930     0.822779    Uiso  ? C
   H72        1.0     0.220599     0.892403     0.834971    Uiso  ? H
   C144       1.0     0.226534     0.133531     0.809389    Uiso  ? C
   C145       1.0     0.191858     0.782600     0.865315    Uiso  ? C
   C146       1.0     0.179408     0.763437     0.873862    Uiso  ? C
   C147       1.0     0.182378     0.742608     0.863861    Uiso  ? C
   H73        1.0     0.193482     0.741624     0.850129    Uiso  ? H
   C148       1.0     0.169126     0.724907     0.869075    Uiso  ? C
   H74        1.0     0.172533     0.708491     0.861961    Uiso  ? H
   C149       1.0     0.154188     0.727358     0.886137    Uiso  ? C
   H75        1.0     0.145823     0.712338     0.891807    Uiso  ? H
   C150       1.0     0.149942     0.747831     0.895775    Uiso  ? C
   C151       1.0     0.163011     0.765859     0.889778    Uiso  ? C
   H76        1.0     0.158513     0.782013     0.896146    Uiso  ? H
   C152       1.0     0.132104     0.750529     0.112177    Uiso  ? C
   C153       1.0     0.217977     0.186142     0.840482    Uiso  ? C
   C154       1.0     0.226360     0.195761     0.861050    Uiso  ? C
   C155       1.0     0.247571     0.204351     0.861573    Uiso  ? C
   H77        1.0     0.257141     0.206067     0.846790    Uiso  ? H
   C156       1.0     0.257018     0.211718     0.881434    Uiso  ? C
   H78        1.0     0.272860     0.218794     0.882709    Uiso  ? H
   C157       1.0     0.244615     0.212486     0.100378    Uiso  ? C
   H79        1.0     0.251455     0.219396     0.115001    Uiso  ? H
   C158       1.0     0.224001     0.203033     0.100196    Uiso  ? C
   C159       1.0     0.213980     0.195439     0.880663    Uiso  ? C
   H80        1.0     0.197528     0.188446     0.881424    Uiso  ? H
   C160       1.0     0.211457     0.201986     0.120670    Uiso  ? C
   C161       1.0     0.177720     0.203002     0.805951    Uiso  ? C
   C162       1.0     0.164518     0.223685     0.806832    Uiso  ? C
   C163       1.0     0.169747     0.242092     0.793832    Uiso  ? C
   H81        1.0     0.183646     0.241911     0.782869    Uiso  ? H
   C164       1.0     0.157822     0.261801     0.796022    Uiso  ? C
   H82        1.0     0.162966     0.275921     0.786602    Uiso  ? H
   C165       1.0     0.139736     0.262422     0.810284    Uiso  ? C
   H83        1.0     0.131117     0.278389     0.811623    Uiso  ? H
   C166       1.0     0.134043     0.243675     0.822753    Uiso  ? C
   C167       1.0     0.146730     0.224852     0.821463    Uiso  ? C
   H84        1.0     0.142889     0.210545     0.830967    Uiso  ? H
   C168       1.0     0.115278     0.244410     0.837950    Uiso  ? C
   C169       1.0     0.121058     0.767642     0.179164    Uiso  ? C
   C170       1.0     0.134281     0.773439     0.198510    Uiso  ? C
   C171       1.0     0.138667     0.758961     0.215264    Uiso  ? C
   H85        1.0     0.129425     0.743570     0.216247    Uiso  ? H
   C172       1.0     0.154693     0.763711     0.230701    Uiso  ? C
   H86        1.0     0.157514     0.751869     0.244059    Uiso  ? H
   C173       1.0     0.165606     0.783828     0.230892    Uiso  ? C
   H87        1.0     0.178975     0.786213     0.242543    Uiso  ? H
   C174       1.0     0.161071     0.799173     0.214354    Uiso  ? C
   C175       1.0     0.144824     0.793822     0.198711    Uiso  ? C
   H88        1.0     0.142287     0.805285     0.185539    Uiso  ? H
   C176       1.0     0.175434     0.818810     0.209973    Uiso  ? C
   C177       1.0     0.872453     0.749894     0.109058    Uiso  ? C
   C178       1.0     0.861564     0.745201     0.887574    Uiso  ? C
   C179       1.0     0.866743     0.726500     0.875174    Uiso  ? C
   H89        1.0     0.877710     0.714092     0.882423    Uiso  ? H
   C180       1.0     0.857375     0.723327     0.854208    Uiso  ? C
   H90        1.0     0.861989     0.708550     0.844095    Uiso  ? H
   C181       1.0     0.841970     0.738137     0.846094    Uiso  ? C
   H91        1.0     0.835670     0.736070     0.829978    Uiso  ? H
   C182       1.0     0.836556     0.756564     0.858676    Uiso  ? C
   C183       1.0     0.845811     0.760108     0.879637    Uiso  ? C
   H92        1.0     0.840504     0.774393     0.888709    Uiso  ? H
   C184       1.0     0.819822     0.772169     0.850903    Uiso  ? C
   C185       1.0     0.769191     0.829953     0.813514    Uiso  ? C
   C186       1.0     0.758835     0.847769     0.801214    Uiso  ? C
   C187       1.0     0.742919     0.842615     0.785016    Uiso  ? C
   H93        1.0     0.738107     0.825487     0.782784    Uiso  ? H
   C188       1.0     0.734451     0.859312     0.771784    Uiso  ? C
   H94        1.0     0.721521     0.854907     0.760410    Uiso  ? H
   C189       1.0     0.742171     0.881468     0.773317    Uiso  ? C
   H95        1.0     0.736281     0.894001     0.761143    Uiso  ? H
   C190       1.0     0.758227     0.886927     0.789812    Uiso  ? C
   C191       1.0     0.765980     0.869579     0.803542    Uiso  ? C
   H96        1.0     0.777931     0.874185     0.816429    Uiso  ? H
   C192       1.0     0.769442     0.113559     0.789443    Uiso  ? C
   O55        1.0     0.134983     0.840661     0.768312    Uiso  ? O
   O56        1.0     0.127811     0.820415     0.739266    Uiso  ? O
   O57        1.0     0.125375     0.891120     0.746645    Uiso  ? O
   O58        1.0     0.143706     0.868114     0.726875    Uiso  ? O
   O59        1.0     0.875426     0.866645     0.751341    Uiso  ? O
   O60        1.0     0.885076     0.867049     0.717213    Uiso  ? O
   O61        1.0     0.880321     0.843235     0.762328    Uiso  ? O
   O62        1.0     0.896388     0.821398     0.737624    Uiso  ? O
   O63        1.0     0.211486     0.818475     0.885569    Uiso  ? O
   O64        1.0     0.241330     0.802229     0.872713    Uiso  ? O
   O65        1.0     0.223537     0.852759     0.849627    Uiso  ? O
   O66        1.0     0.236724     0.830306     0.824607    Uiso  ? O
   O67        1.0     0.187504     0.819140     0.825702    Uiso  ? O
   O68        1.0     0.205432     0.787277     0.823355    Uiso  ? O
   O69        1.0     0.190947     0.801803     0.874267    Uiso  ? O
   O70        1.0     0.205975     0.779146     0.850158    Uiso  ? O
   O71        1.0     0.197511     0.182694     0.838512    Uiso  ? O
   O72        1.0     0.230638     0.184001     0.824023    Uiso  ? O
   O73        1.0     0.176882     0.189881     0.821920    Uiso  ? O
   O74        1.0     0.190721     0.200070     0.789740    Uiso  ? O
   O75        1.0     0.178157     0.151955     0.785035    Uiso  ? O
   O76        1.0     0.212028     0.153264     0.772291    Uiso  ? O
   O77        1.0     0.213514     0.137529     0.824888    Uiso  ? O
   O78        1.0     0.227332     0.146363     0.793254    Uiso  ? O
   O79        1.0     0.109050     0.781944     0.169944    Uiso  ? O
   O80        1.0     0.124842     0.749011     0.169848    Uiso  ? O
   O81        1.0     0.128412     0.768760     0.121043    Uiso  ? O
   O82        1.0     0.119729     0.734444     0.116582    Uiso  ? O
   O83        1.0     0.869547     0.767775     0.119648    Uiso  ? O
   O84        1.0     0.887096     0.736793     0.115177    Uiso  ? O
   O85        1.0     0.864321     0.769257     0.148307    Uiso  ? O
   O86        1.0     0.869762     0.735020     0.160104    Uiso  ? O
   O87        1.0     0.817296     0.791021     0.859739    Uiso  ? O
   O88        1.0     0.809209     0.768059     0.833062    Uiso  ? O
   O89        1.0     0.825145     0.812137     0.814457    Uiso  ? O
   O90        1.0     0.812157     0.778647     0.808330    Uiso  ? O
   O91        1.0     0.776304     0.833530     0.833057    Uiso  ? O
   O92        1.0     0.773148     0.812079     0.803882    Uiso  ? O
   O93        1.0     0.794681     0.801081     0.870445    Uiso  ? O
   O94        1.0     0.766519     0.787995     0.851784    Uiso  ? O
   O95        1.0     0.179143     0.873349     0.210806    Uiso  ? O
   O96        1.0     0.192319     0.849667     0.235050    Uiso  ? O
   O97        1.0     0.201485     0.885703     0.196457    Uiso  ? O
   O98        1.0     0.230517     0.873848     0.212721    Uiso  ? O
   O99        1.0     0.216921     0.846830     0.164182    Uiso  ? O
   O100       1.0     0.228077     0.822349     0.187653    Uiso  ? O
   O101       1.0     0.174036     0.828927     0.191990    Uiso  ? O
   O102       1.0     0.190267     0.824768     0.223646    Uiso  ? O
   O103       1.0     0.112402     0.879119     0.795990    Uiso  ? O
   O104       1.0     0.174872     0.855333     0.859836    Uiso  ? O
   O105       1.0     0.162409     0.135869     0.831571    Uiso  ? O
   O106       1.0     0.895178     0.812595     0.125818    Uiso  ? O
   O107       1.0     0.823335     0.846092     0.854395    Uiso  ? O
   O108       1.0     0.171920     0.864131     0.153186    Uiso  ? O
   Zn13       1.0     0.111759     0.865700     0.764925    Uiso  ? Zn
   Zn14       1.0     0.117408     0.847895     0.720349    Uiso  ? Zn
   Zn15       1.0     0.198332     0.831556     0.856106    Uiso  ? Zn
   Zn16       1.0     0.233711     0.799637     0.839721    Uiso  ? Zn
   Zn17       1.0     0.185896     0.157098     0.817926    Uiso  ? Zn
   Zn18       1.0     0.218923     0.180607     0.791878    Uiso  ? Zn
   Zn19       1.0     0.895999     0.780132     0.137917    Uiso  ? Zn
   Zn20       1.0     0.105204     0.731318     0.147260    Uiso  ? Zn
   Zn21       1.0     0.805922     0.819301     0.841941    Uiso  ? Zn
   Zn22       1.0     0.780219     0.784098     0.821106    Uiso  ? Zn
   Zn23       1.0     0.189758     0.857264     0.182238    Uiso  ? Zn
   Zn24       1.0     0.221371     0.841135     0.216114    Uiso  ? Zn
   H97        1.0     0.165246     0.859178     0.847477    Uiso  ? H
   H98        1.0     0.171846     0.862221     0.873722    Uiso  ? H
   H99        1.0     0.798944     0.136951     0.895547    Uiso  ? H
   H100       1.0     0.795654     0.119882     0.116886    Uiso  ? H
   H101       1.0     0.829975     0.125792     0.834049    Uiso  ? H
   H102       1.0     0.847458     0.141137     0.819793    Uiso  ? H
   H103       1.0     0.889158     0.181262     0.883331    Uiso  ? H
   H104       1.0     0.862705     0.183207     0.884645    Uiso  ? H
   H105       1.0     0.157527     0.868965     0.156124    Uiso  ? H
   H106       1.0     0.174926     0.858894     0.138607    Uiso  ? H
   H107       1.0     0.869063     0.107183     0.175319    Uiso  ? H
   H108       1.0     0.884613     0.884870     0.187647    Uiso  ? H
   H109       1.0     0.154830     0.147031     0.143252    Uiso  ? H
   H110       1.0     0.168617     0.152739     0.119715    Uiso  ? H
   H111       1.0     0.897238     0.814242     0.110282    Uiso  ? H
   H112       1.0     0.890044     0.825514     0.133988    Uiso  ? H
   H113       1.0     0.818563     0.859214     0.148775    Uiso  ? H
   H114       1.0     0.805668     0.880315     0.159311    Uiso  ? H
   H115       1.0     0.816555     0.860489     0.856252    Uiso  ? H
   H116       1.0     0.838005     0.843959     0.860379    Uiso  ? H
   H117       1.0     0.164279     0.120386     0.832001    Uiso  ? H
   H118       1.0     0.148036     0.142122     0.834342    Uiso  ? H
   H119       1.0     0.125406     0.886369     0.800915    Uiso  ? H
   H120       1.0     0.897370     0.874314     0.806360    Uiso  ? H
   C193       1.0     0.118256     0.353895     0.417815    Uiso  ? C
   C194       1.0     0.895336     0.341288     0.426372    Uiso  ? C
   C195       1.0     0.893131     0.319017     0.422130    Uiso  ? C
   H121       1.0     0.110290     0.310900     0.413306    Uiso  ? H
   C196       1.0     0.874296     0.308319     0.428503    Uiso  ? C
   H122       1.0     0.873336     0.290943     0.424677    Uiso  ? H
   C197       1.0     0.857067     0.319972     0.438509    Uiso  ? C
   H123       1.0     0.841814     0.311581     0.440982    Uiso  ? H
   C198       1.0     0.858414     0.342660     0.441641    Uiso  ? C
   C199       1.0     0.878371     0.353547     0.435800    Uiso  ? C
   H124       1.0     0.879576     0.371704     0.436965    Uiso  ? H
   C200       1.0     0.839651     0.355760     0.449465    Uiso  ? C
   C201       1.0     0.127295     0.399006     0.369330    Uiso  ? C
   C202       1.0     0.114776     0.411274     0.351986    Uiso  ? C
   C203       1.0     0.118338     0.406734     0.330247    Uiso  ? C
   H125       1.0     0.128360     0.393539     0.324043    Uiso  ? H
   C204       1.0     0.109221     0.420161     0.313924    Uiso  ? C
   H126       1.0     0.113040     0.418136     0.297070    Uiso  ? H
   C205       1.0     0.891670     0.438107     0.320323    Uiso  ? C
   H127       1.0     0.886013     0.449315     0.307594    Uiso  ? H
   C206       1.0     0.887847     0.442194     0.342158    Uiso  ? C
   C207       1.0     0.897334     0.428879     0.357874    Uiso  ? C
   H128       1.0     0.894949     0.433142     0.374756    Uiso  ? H
   C208       1.0     0.873788     0.461479     0.348559    Uiso  ? C
   C209       1.0     0.191411     0.389082     0.401369    Uiso  ? C
   C210       1.0     0.214387     0.395419     0.404140    Uiso  ? C
   C211       1.0     0.231857     0.381544     0.397231    Uiso  ? C
   H129       1.0     0.229783     0.365713     0.389479    Uiso  ? H
   C212       1.0     0.253190     0.386706     0.403325    Uiso  ? C
   H130       1.0     0.266566     0.375388     0.397552    Uiso  ? H
   C213       1.0     0.258153     0.404511     0.415925    Uiso  ? C
   H131       1.0     0.274919     0.407244     0.419337    Uiso  ? H
   C214       1.0     0.241535     0.418950     0.422404    Uiso  ? C
   C215       1.0     0.219403     0.414208     0.416985    Uiso  ? C
   H132       1.0     0.205853     0.424888     0.421562    Uiso  ? H
   C216       1.0     0.246052     0.438317     0.436192    Uiso  ? C
   C217       1.0     0.164986     0.358379     0.435083    Uiso  ? C
   C218       1.0     0.175365     0.346494     0.453824    Uiso  ? C
   C219       1.0     0.186272     0.326087     0.451060    Uiso  ? C
   H133       1.0     0.187048     0.317867     0.435158    Uiso  ? H
   C220       1.0     0.195231     0.315691     0.468922    Uiso  ? C
   H134       1.0     0.204437     0.300806     0.467911    Uiso  ? H
   C221       1.0     0.194869     0.325237     0.490170    Uiso  ? C
   H135       1.0     0.204810     0.317754     0.502964    Uiso  ? H
   C222       1.0     0.184450     0.345805     0.493150    Uiso  ? C
   C223       1.0     0.174717     0.355842     0.475052    Uiso  ? C
   H136       1.0     0.166048     0.371128     0.477101    Uiso  ? H
   C224       1.0     0.185608     0.355964     0.515262    Uiso  ? C
   C225       1.0     0.777949     0.399131     0.485540    Uiso  ? C
   C226       1.0     0.761467     0.409865     0.498163    Uiso  ? C
   C227       1.0     0.740519     0.400806     0.499408    Uiso  ? C
   H137       1.0     0.736630     0.385636     0.490750    Uiso  ? H
   C228       1.0     0.722452     0.412813     0.507456    Uiso  ? C
   H138       1.0     0.705815     0.405915     0.507983    Uiso  ? H
   C229       1.0     0.726106     0.433311     0.517162    Uiso  ? C
   H139       1.0     0.712318     0.442737     0.523773    Uiso  ? H
   C230       1.0     0.746908     0.442745     0.517707    Uiso  ? C
   C231       1.0     0.764545     0.431004     0.507407    Uiso  ? C
   H140       1.0     0.780411     0.438889     0.505914    Uiso  ? H
   C232       1.0     0.750689     0.465164     0.526344    Uiso  ? C
   C233       1.0     0.800882     0.401113     0.419073    Uiso  ? C
   C234       1.0     0.798571     0.411360     0.397541    Uiso  ? C
   C235       1.0     0.785448     0.402704     0.380865    Uiso  ? C
   H141       1.0     0.776369     0.388147     0.384480    Uiso  ? H
   C236       1.0     0.785642     0.412011     0.359780    Uiso  ? C
   H142       1.0     0.773672     0.406173     0.348345    Uiso  ? H
   C237       1.0     0.798607     0.430154     0.354791    Uiso  ? C
   H143       1.0     0.796330     0.437980     0.338848    Uiso  ? H
   C238       1.0     0.812577     0.438568     0.371043    Uiso  ? C
   C239       1.0     0.812768     0.429002     0.392093    Uiso  ? C
   H144       1.0     0.823235     0.435171     0.405459    Uiso  ? H
   C240       1.0     0.825120     0.458924     0.367259    Uiso  ? C
   C241       1.0     0.815424     0.365313     0.495838    Uiso  ? C
   C242       1.0     0.819242     0.354994     0.517429    Uiso  ? C
   C243       1.0     0.813925     0.332828     0.521038    Uiso  ? C
   H145       1.0     0.810461     0.321030     0.508118    Uiso  ? H
   C244       1.0     0.815273     0.323963     0.542418    Uiso  ? C
   H146       1.0     0.810164     0.307075     0.545936    Uiso  ? H
   C245       1.0     0.821653     0.336891     0.560276    Uiso  ? C
   H147       1.0     0.820928     0.330237     0.577146    Uiso  ? H
   C246       1.0     0.826666     0.359175     0.556401    Uiso  ? C
   C247       1.0     0.826293     0.367973     0.535183    Uiso  ? C
   H148       1.0     0.829593     0.385325     0.532742    Uiso  ? H
   C248       1.0     0.832746     0.373657     0.574842    Uiso  ? C
   C249       1.0     0.827530     0.530349     0.368464    Uiso  ? C
   C250       1.0     0.818355     0.552727     0.374167    Uiso  ? C
   C251       1.0     0.811240     0.566029     0.356487    Uiso  ? C
   H149       1.0     0.811345     0.559238     0.339974    Uiso  ? H
   C252       1.0     0.802252     0.587101     0.360123    Uiso  ? C
   H150       1.0     0.796768     0.597413     0.347281    Uiso  ? H
   C253       1.0     0.801677     0.594812     0.381326    Uiso  ? C
   H151       1.0     0.796148     0.611964     0.383431    Uiso  ? H
   C254       1.0     0.809020     0.581892     0.399264    Uiso  ? C
   C255       1.0     0.816931     0.560691     0.395838    Uiso  ? C
   H152       1.0     0.823783     0.551152     0.409051    Uiso  ? H
   C256       1.0     0.809765     0.591803     0.421075    Uiso  ? C
   C257       1.0     0.888809     0.511531     0.353653    Uiso  ? C
   C258       1.0     0.113925     0.522109     0.347753    Uiso  ? C
   C259       1.0     0.123195     0.519830     0.326983    Uiso  ? C
   H153       1.0     0.114362     0.510149     0.315229    Uiso  ? H
   C260       1.0     0.142258     0.531383     0.321551    Uiso  ? C
   H154       1.0     0.148128     0.531685     0.304799    Uiso  ? H
   C261       1.0     0.152592     0.544114     0.336861    Uiso  ? C
   H155       1.0     0.167919     0.552025     0.333059    Uiso  ? H
   C262       1.0     0.143334     0.547010     0.357936    Uiso  ? C
   C263       1.0     0.124259     0.535935     0.362964    Uiso  ? C
   H156       1.0     0.117264     0.538064     0.378937    Uiso  ? H
   C264       1.0     0.153143     0.562468     0.374218    Uiso  ? C
   C265       1.0     0.807760     0.426518     0.612707    Uiso  ? C
   C266       1.0     0.790894     0.443446     0.614028    Uiso  ? C
   C267       1.0     0.776212     0.444442     0.631652    Uiso  ? C
   H157       1.0     0.779311     0.434208     0.646294    Uiso  ? H
   C268       1.0     0.758839     0.459375     0.631362    Uiso  ? C
   H158       1.0     0.748157     0.460745     0.645494    Uiso  ? H
   C269       1.0     0.754825     0.472282     0.612903    Uiso  ? C
   H159       1.0     0.740125     0.482762     0.612789    Uiso  ? H
   C270       1.0     0.768859     0.470451     0.594604    Uiso  ? C
   C271       1.0     0.787036     0.456453     0.595805    Uiso  ? C
   H160       1.0     0.797511     0.454635     0.581190    Uiso  ? H
   C272       1.0     0.763999     0.483646     0.574417    Uiso  ? C
   C273       1.0     0.872514     0.373611     0.608064    Uiso  ? C
   C274       1.0     0.892797     0.360025     0.607888    Uiso  ? C
   C275       1.0     0.895438     0.342588     0.623363    Uiso  ? C
   H161       1.0     0.882674     0.338612     0.635218    Uiso  ? H
   C276       1.0     0.118511     0.329582     0.622221    Uiso  ? C
   H162       1.0     0.120421     0.315985     0.633441    Uiso  ? H
   C277       1.0     0.135600     0.334254     0.607961    Uiso  ? C
   H163       1.0     0.150134     0.323846     0.607032    Uiso  ? H
   C278       1.0     0.133277     0.351555     0.592747    Uiso  ? C
   C279       1.0     0.114073     0.364053     0.592292    Uiso  ? C
   H164       1.0     0.112619     0.378143     0.581340    Uiso  ? H
   C280       1.0     0.152268     0.357585     0.578485    Uiso  ? C
   C281       1.0     0.221212     0.387614     0.537651    Uiso  ? C
   C282       1.0     0.241221     0.396628     0.527448    Uiso  ? C
   C283       1.0     0.262089     0.385613     0.530776    Uiso  ? C
   H165       1.0     0.263399     0.371031     0.539999    Uiso  ? H
   C284       1.0     0.280181     0.394431     0.520107    Uiso  ? C
   H166       1.0     0.295447     0.385405     0.520053    Uiso  ? H
   C285       1.0     0.279294     0.413972     0.508526    Uiso  ? C
   H167       1.0     0.293446     0.420259     0.500580    Uiso  ? H
   C286       1.0     0.259536     0.424736     0.505561    Uiso  ? C
   C287       1.0     0.240645     0.415734     0.514773    Uiso  ? C
   H168       1.0     0.224685     0.422985     0.511823    Uiso  ? H
   C288       1.0     0.258298     0.443303     0.490412    Uiso  ? C
   O109       1.0     0.124631     0.371832     0.426457    Uiso  ? O
   O110       1.0     0.127097     0.347229     0.400289    Uiso  ? O
   O111       1.0     0.122038     0.402694     0.389420    Uiso  ? O
   O112       1.0     0.143957     0.386373     0.365290    Uiso  ? O
   O113       1.0     0.176173     0.402757     0.405269    Uiso  ? O
   O114       1.0     0.186823     0.369446     0.397754    Uiso  ? O
   O115       1.0     0.150410     0.372927     0.438606    Uiso  ? O
   O116       1.0     0.170960     0.354082     0.415498    Uiso  ? O
   O117       1.0     0.798232     0.404366     0.487714    Uiso  ? O
   O118       1.0     0.772586     0.385382     0.470700    Uiso  ? O
   O119       1.0     0.802639     0.413074     0.436067    Uiso  ? O
   O120       1.0     0.798783     0.380381     0.420900    Uiso  ? O
   O121       1.0     0.840960     0.376846     0.450185    Uiso  ? O
   O122       1.0     0.821454     0.346704     0.455267    Uiso  ? O
   O123       1.0     0.817137     0.385945     0.493977    Uiso  ? O
   O124       1.0     0.808845     0.352844     0.479874    Uiso  ? O
   O125       1.0     0.829527     0.516532     0.383546    Uiso  ? O
   O126       1.0     0.834125     0.526195     0.349481    Uiso  ? O
   O127       1.0     0.883082     0.510261     0.373608    Uiso  ? O
   O128       1.0     0.876296     0.503896     0.338955    Uiso  ? O
   O129       1.0     0.866008     0.463220     0.368007    Uiso  ? O
   O130       1.0     0.870290     0.476528     0.334428    Uiso  ? O
   O131       1.0     0.840841     0.463548     0.380220    Uiso  ? O
   O132       1.0     0.822434     0.470703     0.350444    Uiso  ? O
   O133       1.0     0.817490     0.424002     0.594721    Uiso  ? O
   O134       1.0     0.814169     0.416482     0.629670    Uiso  ? O
   O135       1.0     0.848229     0.387182     0.572146    Uiso  ? O
   O136       1.0     0.823637     0.371775     0.593301    Uiso  ? O
   O137       1.0     0.869928     0.387210     0.592696    Uiso  ? O
   O138       1.0     0.860905     0.374651     0.625636    Uiso  ? O
   O139       1.0     0.866915     0.424468     0.621353    Uiso  ? O
   O140       1.0     0.858511     0.395273     0.641442    Uiso  ? O
   O141       1.0     0.148994     0.367412     0.560593    Uiso  ? O
   O142       1.0     0.171645     0.351880     0.583417    Uiso  ? O
   O143       1.0     0.181483     0.376316     0.517631    Uiso  ? O
   O144       1.0     0.191897     0.344776     0.531468    Uiso  ? O
   O145       1.0     0.202485     0.392675     0.529872    Uiso  ? O
   O146       1.0     0.222690     0.374254     0.553972    Uiso  ? O
   O147       1.0     0.189287     0.403167     0.575387    Uiso  ? O
   O148       1.0     0.215249     0.379039     0.580851    Uiso  ? O
   O149       1.0     0.783837     0.528974     0.555306    Uiso  ? O
   O150       1.0     0.750562     0.525315     0.569883    Uiso  ? O
   O151       1.0     0.759848     0.520880     0.506822    Uiso  ? O
   O152       1.0     0.730930     0.533152     0.525297    Uiso  ? O
   O153       1.0     0.770310     0.471360     0.532274    Uiso  ? O
   O154       1.0     0.734458     0.478214     0.528274    Uiso  ? O
   O155       1.0     0.775572     0.481804     0.557003    Uiso  ? O
   O156       1.0     0.748011     0.497114     0.574742    Uiso  ? O
   O157       1.0     0.135429     0.428198     0.429996    Uiso  ? O
   O158       1.0     0.841218     0.430111     0.466785    Uiso  ? O
   O159       1.0     0.860731     0.494487     0.418967    Uiso  ? O
   O160       1.0     0.861952     0.441511     0.572484    Uiso  ? O
   O161       1.0     0.151635     0.415975     0.542989    Uiso  ? O
   O162       1.0     0.806034     0.506956     0.511851    Uiso  ? O
   Zn25       1.0     0.143237     0.397800     0.415170    Uiso  ? Zn
   Zn26       1.0     0.155626     0.360184     0.385123    Uiso  ? Zn
   Zn27       1.0     0.821328     0.402066     0.462419    Uiso  ? Zn
   Zn28       1.0     0.791388     0.364002     0.450772    Uiso  ? Zn
   Zn29       1.0     0.855078     0.494379     0.384496    Uiso  ? Zn
   Zn30       1.0     0.841814     0.495825     0.336074    Uiso  ? Zn
   Zn31       1.0     0.849768     0.414923     0.592277    Uiso  ? Zn
   Zn32       1.0     0.828955     0.386337     0.624643    Uiso  ? Zn
   Zn33       1.0     0.172965     0.390321     0.547841    Uiso  ? Zn
   Zn34       1.0     0.199251     0.351697     0.564314    Uiso  ? Zn
   Zn35       1.0     0.777569     0.505330     0.530049    Uiso  ? Zn
   Zn36       1.0     0.730333     0.508280     0.546676    Uiso  ? Zn
   C289       1.0     0.107618     0.616511     0.605617    Uiso  ? C
   C290       1.0     0.129239     0.627042     0.603519    Uiso  ? C
   C291       1.0     0.135616     0.643048     0.618572    Uiso  ? C
   H169       1.0     0.124134     0.648883     0.630768    Uiso  ? H
   C292       1.0     0.156954     0.652259     0.618280    Uiso  ? C
   H170       1.0     0.160409     0.666254     0.629017    Uiso  ? H
   C293       1.0     0.172607     0.644556     0.602848    Uiso  ? C
   H171       1.0     0.189086     0.651132     0.603529    Uiso  ? H
   C294       1.0     0.166714     0.627850     0.587629    Uiso  ? C
   C295       1.0     0.144689     0.619622     0.587992    Uiso  ? C
   H172       1.0     0.140080     0.605878     0.578033    Uiso  ? H
   C296       1.0     0.183114     0.617759     0.573378    Uiso  ? C
   C297       1.0     0.882825     0.576952     0.639896    Uiso  ? C
   C298       1.0     0.894378     0.565609     0.657866    Uiso  ? C
   C299       1.0     0.895467     0.574153     0.678731    Uiso  ? C
   H173       1.0     0.885386     0.587704     0.683755    Uiso  ? H
   C300       1.0     0.112598     0.564398     0.695072    Uiso  ? C
   H174       1.0     0.113625     0.572259     0.711612    Uiso  ? H
   C301       1.0     0.125340     0.546587     0.690471    Uiso  ? C
   H175       1.0     0.136861     0.540362     0.703089    Uiso  ? H
   C302       1.0     0.123597     0.536786     0.669652    Uiso  ? C
   C303       1.0     0.109786     0.546098     0.653871    Uiso  ? C
   H176       1.0     0.109422     0.538758     0.637943    Uiso  ? H
   C304       1.0     0.138398     0.518158     0.663539    Uiso  ? C
   C305       1.0     0.826846     0.578176     0.607319    Uiso  ? C
   C306       1.0     0.804368     0.568651     0.607362    Uiso  ? C
   C307       1.0     0.791094     0.569742     0.626412    Uiso  ? C
   H177       1.0     0.796619     0.578621     0.641010    Uiso  ? H
   C308       1.0     0.770662     0.558548     0.626390    Uiso  ? C
   H178       1.0     0.760309     0.559508     0.640885    Uiso  ? H
   C309       1.0     0.763695     0.546757     0.608238    Uiso  ? C
   H179       1.0     0.749122     0.537091     0.609806    Uiso  ? H
   C310       1.0     0.776566     0.546180     0.589170    Uiso  ? C
   C311       1.0     0.796271     0.557828     0.588912    Uiso  ? C
   H180       1.0     0.806669     0.558028     0.574054    Uiso  ? H
   C312       1.0     0.769875     0.532833     0.570609    Uiso  ? C
   C313       1.0     0.847335     0.619951     0.576800    Uiso  ? C
   C314       1.0     0.838232     0.633715     0.558260    Uiso  ? C
   C315       1.0     0.837290     0.656509     0.560362    Uiso  ? C
   H181       1.0     0.842271     0.664835     0.575164    Uiso  ? H
   C316       1.0     0.831255     0.669329     0.542068    Uiso  ? C
   H182       1.0     0.830393     0.687490     0.543675    Uiso  ? H
   C317       1.0     0.827327     0.659597     0.521788    Uiso  ? C
   H183       1.0     0.820954     0.669552     0.508625    Uiso  ? H
   C318       1.0     0.830082     0.636821     0.519003    Uiso  ? C
   C319       1.0     0.834215     0.624072     0.537777    Uiso  ? C
   H184       1.0     0.835288     0.606646     0.535643    Uiso  ? H
   C320       1.0     0.827688     0.625795     0.497457    Uiso  ? C
   C321       1.0     0.241799     0.571189     0.532221    Uiso  ? C
   C322       1.0     0.258567     0.556237     0.522536    Uiso  ? C
   C323       1.0     0.281218     0.558179     0.528566    Uiso  ? C
   H185       1.0     0.286884     0.571365     0.539394    Uiso  ? H
   C324       1.0     0.296870     0.543763     0.520480    Uiso  ? C
   H186       1.0     0.313877     0.545840     0.526651    Uiso  ? H
   C325       1.0     0.290637     0.527104     0.506150    Uiso  ? C
   H187       1.0     0.303405     0.516463     0.499835    Uiso  ? H
   C326       1.0     0.268709     0.525277     0.498635    Uiso  ? C
   C327       1.0     0.252735     0.540166     0.506416    Uiso  ? C
   H188       1.0     0.235866     0.538086     0.502119    Uiso  ? H
   C328       1.0     0.262989     0.506516     0.483312    Uiso  ? C
   C329       1.0     0.224455     0.566602     0.580933    Uiso  ? C
   C330       1.0     0.230031     0.551457     0.599687    Uiso  ? C
   C331       1.0     0.251637     0.546851     0.605151    Uiso  ? C
   H189       1.0     0.264779     0.554617     0.596048    Uiso  ? H
   C332       1.0     0.256658     0.532034     0.621880    Uiso  ? C
   H190       1.0     0.273160     0.528758     0.625814    Uiso  ? H
   C333       1.0     0.239828     0.520383     0.633444    Uiso  ? C
   H191       1.0     0.245192     0.507263     0.644649    Uiso  ? H
   C334       1.0     0.217728     0.524687     0.628084    Uiso  ? C
   C335       1.0     0.213252     0.541088     0.612100    Uiso  ? C
   H192       1.0     0.196380     0.544762     0.608280    Uiso  ? H
   C336       1.0     0.199454     0.511793     0.637953    Uiso  ? C
   C337       1.0     0.215383     0.611831     0.510033    Uiso  ? C
   C338       1.0     0.217101     0.620091     0.486933    Uiso  ? C
   C339       1.0     0.228687     0.639771     0.482815    Uiso  ? C
   H193       1.0     0.237986     0.647568     0.495707    Uiso  ? H
   C340       1.0     0.229298     0.647619     0.461262    Uiso  ? C
   H194       1.0     0.236929     0.663967     0.460219    Uiso  ? H
   C341       1.0     0.218176     0.637029     0.443838    Uiso  ? C
   H195       1.0     0.219059     0.644296     0.427865    Uiso  ? H
   C342       1.0     0.205606     0.618634     0.448228    Uiso  ? C
   C343       1.0     0.205353     0.610448     0.469571    Uiso  ? C
   H196       1.0     0.195845     0.595611     0.473224    Uiso  ? H
   C344       1.0     0.191229     0.608804     0.430882    Uiso  ? C
   C345       1.0     0.192909     0.458811     0.636931    Uiso  ? C
   C346       1.0     0.208328     0.441977     0.627949    Uiso  ? C
   C347       1.0     0.230151     0.440261     0.635705    Uiso  ? C
   H197       1.0     0.235995     0.450721     0.648135    Uiso  ? H
   C348       1.0     0.243673     0.423370     0.627849    Uiso  ? C
   H198       1.0     0.260235     0.422506     0.633894    Uiso  ? H
   C349       1.0     0.236396     0.409632     0.610858    Uiso  ? C
   H199       1.0     0.247404     0.398146     0.603868    Uiso  ? H
   C350       1.0     0.214770     0.411266     0.603156    Uiso  ? C
   C351       1.0     0.200356     0.426701     0.612798    Uiso  ? C
   H200       1.0     0.183778     0.427550     0.607383    Uiso  ? H
   C352       1.0     0.206091     0.397081     0.585964    Uiso  ? C
   C353       1.0     0.133310     0.463462     0.663877    Uiso  ? C
   C354       1.0     0.117299     0.446303     0.668512    Uiso  ? C
   C355       1.0     0.119126     0.433647     0.687596    Uiso  ? C
   H201       1.0     0.132040     0.436668     0.699962    Uiso  ? H
   C356       1.0     0.105318     0.416023     0.691465    Uiso  ? C
   H202       1.0     0.105825     0.406965     0.706653    Uiso  ? H
   C357       1.0     0.886198     0.409300     0.675430    Uiso  ? C
   H203       1.0     0.875493     0.395145     0.678552    Uiso  ? H
   C358       1.0     0.884385     0.420791     0.655807    Uiso  ? C
   C359       1.0     0.897646     0.439894     0.652798    Uiso  ? C
   H204       1.0     0.896850     0.447628     0.637054    Uiso  ? H
   C360       1.0     0.868605     0.413455     0.639113    Uiso  ? C
   C361       1.0     0.199481     0.567069     0.400596    Uiso  ? C
   C362       1.0     0.217718     0.550886     0.399582    Uiso  ? C
   C363       1.0     0.230152     0.548792     0.379697    Uiso  ? C
   H205       1.0     0.226859     0.559448     0.365796    Uiso  ? H
   C364       1.0     0.245934     0.532833     0.377260    Uiso  ? C
   H206       1.0     0.255173     0.532257     0.362734    Uiso  ? H
   C365       1.0     0.249747     0.518099     0.394650    Uiso  ? C
   H207       1.0     0.262723     0.506286     0.393184    Uiso  ? H
   C366       1.0     0.238337     0.519736     0.414771    Uiso  ? C
   C367       1.0     0.222316     0.536138     0.416922    Uiso  ? C
   H208       1.0     0.213319     0.536611     0.432361    Uiso  ? H
   C368       1.0     0.243423     0.504495     0.433350    Uiso  ? C
   C369       1.0     0.130737     0.617098     0.402076    Uiso  ? C
   C370       1.0     0.108366     0.626671     0.400164    Uiso  ? C
   C371       1.0     0.102323     0.638043     0.381096    Uiso  ? C
   H209       1.0     0.114769     0.642247     0.369259    Uiso  ? H
   C372       1.0     0.876437     0.645291     0.378145    Uiso  ? C
   H210       1.0     0.872604     0.655026     0.363973    Uiso  ? H
   C373       1.0     0.860785     0.640294     0.394694    Uiso  ? C
   H211       1.0     0.843894     0.645655     0.391990    Uiso  ? H
   C374       1.0     0.866556     0.629454     0.413365    Uiso  ? C
   C375       1.0     0.888797     0.623684     0.416668    Uiso  ? C
   H212       1.0     0.892783     0.615380     0.432106    Uiso  ? H
   C376       1.0     0.849603     0.624104     0.430589    Uiso  ? C
   C377       1.0     0.780558     0.588476     0.464022    Uiso  ? C
   C378       1.0     0.759682     0.577835     0.469645    Uiso  ? C
   C379       1.0     0.739076     0.587711     0.465930    Uiso  ? C
   H213       1.0     0.738442     0.603374     0.457050    Uiso  ? H
   C380       1.0     0.719672     0.580194     0.474891    Uiso  ? C
   H214       1.0     0.704265     0.588257     0.473491    Uiso  ? H
   C381       1.0     0.720878     0.562217     0.488817    Uiso  ? C
   H215       1.0     0.705925     0.555918     0.496355    Uiso  ? H
   C382       1.0     0.741124     0.551312     0.492087    Uiso  ? C
   C383       1.0     0.760224     0.558571     0.481809    Uiso  ? C
   H216       1.0     0.775664     0.550750     0.485755    Uiso  ? H
   C384       1.0     0.742767     0.533166     0.507931    Uiso  ? C
   O163       1.0     0.896115     0.604487     0.590417    Uiso  ? O
   O164       1.0     0.891788     0.618629     0.623481    Uiso  ? O
   O165       1.0     0.875951     0.566633     0.623315    Uiso  ? O
   O166       1.0     0.882628     0.597864     0.639391    Uiso  ? O
   O167       1.0     0.838033     0.578591     0.589509    Uiso  ? O
   O168       1.0     0.834305     0.588103     0.623955    Uiso  ? O
   O169       1.0     0.847693     0.598839     0.575349    Uiso  ? O
   O170       1.0     0.853496     0.629150     0.594276    Uiso  ? O
   O171       1.0     0.222114     0.572169     0.524833    Uiso  ? O
   O172       1.0     0.247018     0.582513     0.549406    Uiso  ? O
   O173       1.0     0.205463     0.565343     0.571966    Uiso  ? O
   O174       1.0     0.238425     0.581458     0.574630    Uiso  ? O
   O175       1.0     0.177170     0.606951     0.556388    Uiso  ? O
   O176       1.0     0.203387     0.619290     0.578253    Uiso  ? O
   O177       1.0     0.207327     0.592400     0.513347    Uiso  ? O
   O178       1.0     0.223459     0.623067     0.526096    Uiso  ? O
   O179       1.0     0.173369     0.459826     0.629408    Uiso  ? O
   O180       1.0     0.198981     0.471665     0.652161    Uiso  ? O
   O181       1.0     0.129780     0.477462     0.649352    Uiso  ? O
   O182       1.0     0.152121     0.462924     0.673741    Uiso  ? O
   O183       1.0     0.131854     0.503888     0.649500    Uiso  ? O
   O184       1.0     0.157094     0.516359     0.672096    Uiso  ? O
   O185       1.0     0.179734     0.514793     0.631388    Uiso  ? O
   O186       1.0     0.202947     0.497068     0.652038    Uiso  ? O
   O187       1.0     0.187910     0.568420     0.418145    Uiso  ? O
   O188       1.0     0.192977     0.577149     0.383147    Uiso  ? O
   O189       1.0     0.182806     0.590369     0.433652    Uiso  ? O
   O190       1.0     0.188563     0.618852     0.413092    Uiso  ? O
   O191       1.0     0.136474     0.608087     0.419461    Uiso  ? O
   O192       1.0     0.142067     0.614762     0.384916    Uiso  ? O
   O193       1.0     0.144943     0.562793     0.393406    Uiso  ? O
   O194       1.0     0.168746     0.575600     0.369784    Uiso  ? O
   O195       1.0     0.853526     0.610310     0.446216    Uiso  ? O
   O196       1.0     0.829371     0.629852     0.427307    Uiso  ? O
   O197       1.0     0.823072     0.605337     0.495446    Uiso  ? O
   O198       1.0     0.827437     0.637779     0.480138    Uiso  ? O
   O199       1.0     0.798171     0.576949     0.461513    Uiso  ? O
   O200       1.0     0.781441     0.609386     0.462496    Uiso  ? O
   O201       1.0     0.813765     0.579576     0.437734    Uiso  ? O
   O202       1.0     0.809578     0.612712     0.423000    Uiso  ? O
   O203       1.0     0.231263     0.452615     0.439226    Uiso  ? O
   O204       1.0     0.264464     0.439761     0.446606    Uiso  ? O
   O205       1.0     0.242890     0.457354     0.492970    Uiso  ? O
   O206       1.0     0.270208     0.443416     0.472952    Uiso  ? O
   O207       1.0     0.243510     0.504672     0.476622    Uiso  ? O
   O208       1.0     0.276919     0.490830     0.480398    Uiso  ? O
   O209       1.0     0.233468     0.505571     0.451947    Uiso  ? O
   O210       1.0     0.256872     0.488889     0.429599    Uiso  ? O
   O211       1.0     0.886068     0.557175     0.572195    Uiso  ? O
   O212       1.0     0.166520     0.563510     0.534410    Uiso  ? O
   O213       1.0     0.144685     0.493084     0.598145    Uiso  ? O
   O214       1.0     0.139622     0.563637     0.446304    Uiso  ? O
   O215       1.0     0.852878     0.564766     0.475063    Uiso  ? O
   O216       1.0     0.195826     0.470557     0.473596    Uiso  ? O
   Zn37       1.0     0.871378     0.580631     0.592786    Uiso  ? Zn
   Zn38       1.0     0.856553     0.614579     0.623724    Uiso  ? Zn
   Zn39       1.0     0.193991     0.581208     0.543437    Uiso  ? Zn
   Zn40       1.0     0.229836     0.611628     0.558365    Uiso  ? Zn
   Zn41       1.0     0.155979     0.490044     0.630286    Uiso  ? Zn
   Zn42       1.0     0.175746     0.487747     0.673482    Uiso  ? Zn
   Zn43       1.0     0.153612     0.579315     0.420352    Uiso  ? Zn
   Zn44       1.0     0.174755     0.607019     0.383919    Uiso  ? Zn
   Zn45       1.0     0.830848     0.590566     0.465474    Uiso  ? Zn
   Zn46       1.0     0.807223     0.630487     0.453339    Uiso  ? Zn
   Zn47       1.0     0.229644     0.474280     0.466039    Uiso  ? Zn
   Zn48       1.0     0.275339     0.471312     0.452874    Uiso  ? Zn
   H217       1.0     0.152252     0.566518     0.539471    Uiso  ? H
   H218       1.0     0.168397     0.551603     0.524273    Uiso  ? H
   H219       1.0     0.843025     0.441060     0.455792    Uiso  ? H
   H220       1.0     0.849809     0.430434     0.479973    Uiso  ? H
   H221       1.0     0.817429     0.496169     0.513829    Uiso  ? H
   H222       1.0     0.809801     0.520795     0.504257    Uiso  ? H
   H223       1.0     0.875134     0.440351     0.564907    Uiso  ? H
   H224       1.0     0.852779     0.453335     0.567573    Uiso  ? H
   H225       1.0     0.186861     0.463999     0.462050    Uiso  ? H
   H226       1.0     0.190630     0.471078     0.488877    Uiso  ? H
   H227       1.0     0.146406     0.439608     0.429123    Uiso  ? H
   H228       1.0     0.124311     0.429020     0.441282    Uiso  ? H
   H229       1.0     0.146718     0.425635     0.555129    Uiso  ? H
   H230       1.0     0.148151     0.420643     0.528157    Uiso  ? H
   H231       1.0     0.147060     0.550538     0.451388    Uiso  ? H
   H232       1.0     0.125850     0.568352     0.453316    Uiso  ? H
   H233       1.0     0.848397     0.488908     0.428205    Uiso  ? H
   H234       1.0     0.872789     0.502322     0.424314    Uiso  ? H
   H235       1.0     0.864544     0.559057     0.465822    Uiso  ? H
   H236       1.0     0.852525     0.560969     0.490503    Uiso  ? H
   H237       1.0     0.156570     0.492912     0.587660    Uiso  ? H
   H238       1.0     0.129927     0.496597     0.593813    Uiso  ? H
   H239       1.0     0.890843     0.562198     0.558104    Uiso  ? H
   H240       1.0     0.888676     0.542075     0.576539    Uiso  ? H
   C385       1.0     0.635829     0.849320     0.474184    Uiso  ? C
   C386       1.0     0.634805     0.826893     0.483986    Uiso  ? C
   C387       1.0     0.654228     0.815561     0.489407    Uiso  ? C
   H241       1.0     0.670498     0.822791     0.487089    Uiso  ? H
   C388       1.0     0.653353     0.793504     0.496174    Uiso  ? C
   H242       1.0     0.668209     0.784840     0.499431    Uiso  ? H
   C389       1.0     0.632836     0.782636     0.499202    Uiso  ? C
   H243       1.0     0.632247     0.764971     0.504421    Uiso  ? H
   C390       1.0     0.613238     0.794188     0.494519    Uiso  ? C
   C391       1.0     0.615059     0.816030     0.486337    Uiso  ? C
   H244       1.0     0.599575     0.824274     0.482321    Uiso  ? H
   C392       1.0     0.591994     0.782935     0.495690    Uiso  ? C
   C393       1.0     0.624616     0.877553     0.414018    Uiso  ? C
   C394       1.0     0.616382     0.870875     0.391865    Uiso  ? C
   C395       1.0     0.630601     0.868169     0.374072    Uiso  ? C
   H245       1.0     0.648857     0.871100     0.375573    Uiso  ? H
   C396       1.0     0.622007     0.860203     0.353727    Uiso  ? C
   H246       1.0     0.633473     0.858283     0.339905    Uiso  ? H
   C397       1.0     0.599447     0.856798     0.351115    Uiso  ? C
   H247       1.0     0.593399     0.852747     0.335207    Uiso  ? H
   C398       1.0     0.585375     0.859685     0.369291    Uiso  ? C
   C399       1.0     0.594223     0.865895     0.389780    Uiso  ? C
   H248       1.0     0.584089     0.866038     0.404278    Uiso  ? H
   C400       1.0     0.561726     0.854299     0.367807    Uiso  ? C
   C401       1.0     0.642276     0.128641     0.433969    Uiso  ? C
   C402       1.0     0.642829     0.150875     0.423756    Uiso  ? C
   C403       1.0     0.662814     0.159979     0.416868    Uiso  ? C
   H249       1.0     0.677728     0.150693     0.418353    Uiso  ? H
   C404       1.0     0.663426     0.181422     0.408511    Uiso  ? C
   H250       1.0     0.679283     0.188200     0.402493    Uiso  ? H
   C405       1.0     0.644320     0.193654     0.406659    Uiso  ? C
   H251       1.0     0.645590     0.209797     0.399487    Uiso  ? H
   C406       1.0     0.624118     0.184609     0.412869    Uiso  ? C
   C407       1.0     0.623680     0.163097     0.420734    Uiso  ? C
   H252       1.0     0.608453     0.156151     0.425356    Uiso  ? H
   C408       1.0     0.604128     0.198624     0.413688    Uiso  ? C
   C409       1.0     0.656357     0.117799     0.483950    Uiso  ? C
   C410       1.0     0.664465     0.134722     0.499804    Uiso  ? C
   C411       1.0     0.687530     0.138595     0.501866    Uiso  ? C
   H253       1.0     0.699298     0.129434     0.491762    Uiso  ? H
   C412       1.0     0.695261     0.153498     0.517536    Uiso  ? C
   H254       1.0     0.712554     0.155835     0.518965    Uiso  ? H
   C413       1.0     0.680294     0.163847     0.531728    Uiso  ? C
   H255       1.0     0.686480     0.174195     0.545219    Uiso  ? H
   C414       1.0     0.657691     0.160206     0.529452    Uiso  ? C
   C415       1.0     0.650012     0.146135     0.513341    Uiso  ? C
   H256       1.0     0.632851     0.142580     0.512133    Uiso  ? H
   C416       1.0     0.641789     0.169739     0.544625    Uiso  ? C
   C417       1.0     0.519188     0.751899     0.522975    Uiso  ? C
   C418       1.0     0.500416     0.744085     0.536041    Uiso  ? C
   C419       1.0     0.494473     0.721678     0.535488    Uiso  ? C
   H257       1.0     0.504427     0.709882     0.526344    Uiso  ? H
   C420       1.0     0.475372     0.714019     0.545535    Uiso  ? C
   H258       1.0     0.471361     0.696962     0.544198    Uiso  ? H
   C421       1.0     0.462111     0.728745     0.557046    Uiso  ? C
   H259       1.0     0.446837     0.722249     0.563030    Uiso  ? H
   C422       1.0     0.468491     0.750896     0.558614    Uiso  ? C
   C423       1.0     0.487182     0.758662     0.547878    Uiso  ? C
   H260       1.0     0.490255     0.776076     0.547338    Uiso  ? H
   C424       1.0     0.453464     0.766187     0.570290    Uiso  ? C
   C425       1.0     0.541344     0.761051     0.457721    Uiso  ? C
   C426       1.0     0.538349     0.761087     0.433747    Uiso  ? C
   C427       1.0     0.542753     0.742018     0.422452    Uiso  ? C
   H261       1.0     0.547415     0.728010     0.430771    Uiso  ? H
   C428       1.0     0.542020     0.742103     0.399636    Uiso  ? C
   H262       1.0     0.546017     0.726500     0.391322    Uiso  ? H
   C429       1.0     0.536961     0.761332     0.388249    Uiso  ? C
   H263       1.0     0.537324     0.760669     0.370270    Uiso  ? H
   C430       1.0     0.531100     0.780474     0.399695    Uiso  ? C
   C431       1.0     0.531728     0.779945     0.422762    Uiso  ? C
   H264       1.0     0.528350     0.794713     0.431168    Uiso  ? H
   C432       1.0     0.526222     0.800805     0.388177    Uiso  ? C
   C433       1.0     0.564558     0.769597     0.539128    Uiso  ? C
   C434       1.0     0.569602     0.770498     0.562861    Uiso  ? C
   C435       1.0     0.580271     0.752750     0.573462    Uiso  ? C
   H265       1.0     0.584337     0.737532     0.564818    Uiso  ? H
   C436       1.0     0.585690     0.754869     0.595480    Uiso  ? C
   H266       1.0     0.592588     0.741122     0.604188    Uiso  ? H
   C437       1.0     0.582268     0.774481     0.606853    Uiso  ? C
   H267       1.0     0.586353     0.776152     0.624298    Uiso  ? H
   C438       1.0     0.571507     0.792460     0.596736    Uiso  ? C
   C439       1.0     0.565784     0.790278     0.574376    Uiso  ? C
   H268       1.0     0.556986     0.803813     0.566069    Uiso  ? H
   C440       1.0     0.569251     0.813646     0.608564    Uiso  ? C
   C441       1.0     0.483562     0.819914     0.365712    Uiso  ? C
   C442       1.0     0.461261     0.811167     0.364898    Uiso  ? C
   C443       1.0     0.453249     0.800553     0.345951    Uiso  ? C
   H269       1.0     0.463496     0.797640     0.331322    Uiso  ? H
   C444       1.0     0.432189     0.792578     0.345297    Uiso  ? C
   H270       1.0     0.424935     0.786241     0.330260    Uiso  ? H
   C445       1.0     0.418442     0.794478     0.363331    Uiso  ? C
   H271       1.0     0.401960     0.788676     0.361273    Uiso  ? H
   C446       1.0     0.426166     0.805162     0.382102    Uiso  ? C
   C447       1.0     0.447152     0.813102     0.382366    Uiso  ? C
   H272       1.0     0.452688     0.821885     0.397004    Uiso  ? H
   C448       1.0     0.411584     0.809057     0.400683    Uiso  ? C
   C449       1.0     0.497980     0.867881     0.347326    Uiso  ? C
   C450       1.0     0.484241     0.884453     0.336028    Uiso  ? C
   C451       1.0     0.481645     0.884911     0.313056    Uiso  ? C
   H273       1.0     0.489589     0.872913     0.302256    Uiso  ? H
   C452       1.0     0.469838     0.105179     0.302716    Uiso  ? C
   H274       1.0     0.467884     0.104546     0.285471    Uiso  ? H
   C453       1.0     0.459000     0.120918     0.315042    Uiso  ? C
   H275       1.0     0.449459     0.133075     0.306580    Uiso  ? H
   C454       1.0     0.460306     0.120852     0.337721    Uiso  ? C
   C455       1.0     0.473379     0.104482     0.348386    Uiso  ? C
   H276       1.0     0.476347     0.106236     0.365564    Uiso  ? H
   C456       1.0     0.449976     0.137821     0.351417    Uiso  ? C
   C457       1.0     0.530155     0.828745     0.638610    Uiso  ? C
   C458       1.0     0.511262     0.814375     0.642838    Uiso  ? C
   C459       1.0     0.509707     0.801749     0.661870    Uiso  ? C
   H277       1.0     0.523212     0.802138     0.673149    Uiso  ? H
   C460       1.0     0.492606     0.788074     0.665851    Uiso  ? C
   H278       1.0     0.492586     0.777765     0.680575    Uiso  ? H
   C461       1.0     0.476554     0.785669     0.650300    Uiso  ? C
   H279       1.0     0.464141     0.773298     0.653628    Uiso  ? H
   C462       1.0     0.477191     0.798152     0.630881    Uiso  ? C
   C463       1.0     0.493902     0.813469     0.627770    Uiso  ? C
   H280       1.0     0.493899     0.824327     0.613352    Uiso  ? H
   C464       1.0     0.459219     0.795934     0.614420    Uiso  ? C
   C465       1.0     0.599353     0.874877     0.617694    Uiso  ? C
   C466       1.0     0.617703     0.890127     0.613285    Uiso  ? C
   C467       1.0     0.639370     0.885035     0.618703    Uiso  ? C
   H281       1.0     0.642801     0.869889     0.627611    Uiso  ? H
   C468       1.0     0.657560     0.104444     0.614498    Uiso  ? C
   H282       1.0     0.673498     0.895537     0.618270    Uiso  ? H
   C469       1.0     0.653194     0.124747     0.604492    Uiso  ? C
   H283       1.0     0.666818     0.136049     0.601302    Uiso  ? H
   C470       1.0     0.631345     0.129768     0.598035    Uiso  ? C
   C471       1.0     0.614370     0.114620     0.602208    Uiso  ? C
   H284       1.0     0.597486     0.118024     0.596982    Uiso  ? H
   C472       1.0     0.625767     0.151160     0.588085    Uiso  ? C
   C473       1.0     0.611714     0.212923     0.533905    Uiso  ? C
   C474       1.0     0.613845     0.226844     0.514381    Uiso  ? C
   C475       1.0     0.630889     0.242064     0.512766    Uiso  ? C
   H285       1.0     0.641982     0.244883     0.526434    Uiso  ? H
   C476       1.0     0.635035     0.253683     0.493528    Uiso  ? C
   H286       1.0     0.647538     0.265986     0.493772    Uiso  ? H
   C477       1.0     0.622297     0.249723     0.474894    Uiso  ? C
   H287       1.0     0.625905     0.258047     0.459479    Uiso  ? H
   C478       1.0     0.604237     0.235471     0.476371    Uiso  ? C
   C479       1.0     0.599844     0.223980     0.495902    Uiso  ? C
   H288       1.0     0.585465     0.212353     0.496735    Uiso  ? H
   C480       1.0     0.591274     0.230947     0.456351    Uiso  ? C
   O217       1.0     0.618764     0.857770     0.466501    Uiso  ? O
   O218       1.0     0.653913     0.860090     0.474540    Uiso  ? O
   O219       1.0     0.613757     0.890165     0.426089    Uiso  ? O
   O220       1.0     0.643113     0.870604     0.420452    Uiso  ? O
   O221       1.0     0.623288     0.119159     0.436627    Uiso  ? O
   O222       1.0     0.659797     0.118902     0.440189    Uiso  ? O
   O223       1.0     0.636147     0.111982     0.485038    Uiso  ? O
   O224       1.0     0.667700     0.112917     0.466994    Uiso  ? O
   O225       1.0     0.523654     0.772465     0.522874    Uiso  ? O
   O226       1.0     0.531574     0.738564     0.513024    Uiso  ? O
   O227       1.0     0.529364     0.772358     0.469970    Uiso  ? O
   O228       1.0     0.558251     0.751915     0.465346    Uiso  ? O
   O229       1.0     0.574615     0.793846     0.490397    Uiso  ? O
   O230       1.0     0.590751     0.763883     0.504766    Uiso  ? O
   O231       1.0     0.549733     0.781703     0.530947    Uiso  ? O
   O232       1.0     0.576111     0.756619     0.526984    Uiso  ? O
   O233       1.0     0.492855     0.825180     0.383973    Uiso  ? O
   O234       1.0     0.493497     0.824848     0.347597    Uiso  ? O
   O235       1.0     0.504919     0.871216     0.366580    Uiso  ? O
   O236       1.0     0.501257     0.849311     0.337349    Uiso  ? O
   O237       1.0     0.551820     0.848018     0.385031    Uiso  ? O
   O238       1.0     0.551753     0.852693     0.349269    Uiso  ? O
   O239       1.0     0.514800     0.815720     0.397434    Uiso  ? O
   O240       1.0     0.533115     0.803913     0.369003    Uiso  ? O
   O241       1.0     0.527813     0.845982     0.626845    Uiso  ? O
   O242       1.0     0.549311     0.822486     0.645432    Uiso  ? O
   O243       1.0     0.562568     0.830473     0.597823    Uiso  ? O
   O244       1.0     0.571221     0.814724     0.629308    Uiso  ? O
   O245       1.0     0.580136     0.881511     0.614110    Uiso  ? O
   O246       1.0     0.602364     0.855730     0.624784    Uiso  ? O
   O247       1.0     0.531702     0.873113     0.632580    Uiso  ? O
   O248       1.0     0.559209     0.872038     0.655796    Uiso  ? O
   O249       1.0     0.607638     0.152380     0.577699    Uiso  ? O
   O250       1.0     0.639180     0.167265     0.587719    Uiso  ? O
   O251       1.0     0.621308     0.170914     0.539563    Uiso  ? O
   O252       1.0     0.648281     0.177851     0.563138    Uiso  ? O
   O253       1.0     0.603331     0.194198     0.532284    Uiso  ? O
   O254       1.0     0.621206     0.218697     0.551495    Uiso  ? O
   O255       1.0     0.577105     0.199162     0.578647    Uiso  ? O
   O256       1.0     0.603393     0.203050     0.602383    Uiso  ? O
   O257       1.0     0.410030     0.828571     0.593049    Uiso  ? O
   O258       1.0     0.388638     0.799995     0.594903    Uiso  ? O
   O259       1.0     0.422310     0.801243     0.547440    Uiso  ? O
   O260       1.0     0.410145     0.770901     0.563655    Uiso  ? O
   O261       1.0     0.459017     0.786223     0.572286    Uiso  ? O
   O262       1.0     0.433789     0.760188     0.576220    Uiso  ? O
   O263       1.0     0.462454     0.803778     0.595461    Uiso  ? O
   O264       1.0     0.440666     0.787877     0.619013    Uiso  ? O
   O265       1.0     0.585319     0.895486     0.473747    Uiso  ? O
   O266       1.0     0.530701     0.819552     0.492010    Uiso  ? O
   O267       1.0     0.516324     0.869185     0.416048    Uiso  ? O
   O268       1.0     0.544251     0.875273     0.578744    Uiso  ? O
   O269       1.0     0.563747     0.161497     0.547621    Uiso  ? O
   O270       1.0     0.449287     0.845167     0.565132    Uiso  ? O
   Zn49       1.0     0.616372     0.891387     0.461330    Uiso  ? Zn
   Zn50       1.0     0.661382     0.879325     0.447389    Uiso  ? Zn
   Zn51       1.0     0.541947     0.788022     0.496732    Uiso  ? Zn
   Zn52       1.0     0.562249     0.744108     0.498232    Uiso  ? Zn
   Zn53       1.0     0.518031     0.849357     0.388260    Uiso  ? Zn
   Zn54       1.0     0.527657     0.828127     0.344339    Uiso  ? Zn
   Zn55       1.0     0.552688     0.861568     0.608049    Uiso  ? Zn
   Zn56       1.0     0.576963     0.844868     0.646297    Uiso  ? Zn
   Zn57       1.0     0.592221     0.176287     0.559292    Uiso  ? Zn
   Zn58       1.0     0.629059     0.201622     0.579208    Uiso  ? Zn
   Zn59       1.0     0.436884     0.815069     0.574753    Uiso  ? Zn
   Zn60       1.0     0.414342     0.777909     0.598245    Uiso  ? Zn
   C481       1.0     0.353705     0.165032     0.525944    Uiso  ? C
   C482       1.0     0.353973     0.187484     0.516196    Uiso  ? C
   C483       1.0     0.334296     0.197982     0.509711    Uiso  ? C
   H289       1.0     0.318568     0.189383     0.510692    Uiso  ? H
   C484       1.0     0.335069     0.220203     0.502726    Uiso  ? C
   H290       1.0     0.319827     0.228790     0.497669    Uiso  ? H
   C485       1.0     0.355579     0.231033     0.501709    Uiso  ? C
   H291       1.0     0.356554     0.248353     0.496493    Uiso  ? H
   C486       1.0     0.374862     0.220054     0.508036    Uiso  ? C
   C487       1.0     0.373804     0.199080     0.515736    Uiso  ? C
   H292       1.0     0.389544     0.192278     0.522386    Uiso  ? H
   C488       1.0     0.396501     0.231389     0.506746    Uiso  ? C
   C489       1.0     0.367557     0.139053     0.586034    Uiso  ? C
   C490       1.0     0.375618     0.146071     0.607358    Uiso  ? C
   C491       1.0     0.361350     0.148296     0.625129    Uiso  ? C
   H293       1.0     0.343617     0.145776     0.623553    Uiso  ? H
   C492       1.0     0.369747     0.154800     0.645449    Uiso  ? C
   H294       1.0     0.359656     0.156171     0.659985    Uiso  ? H
   C493       1.0     0.392104     0.159064     0.648308    Uiso  ? C
   H295       1.0     0.398472     0.164094     0.664147    Uiso  ? H
   C494       1.0     0.406333     0.157222     0.630866    Uiso  ? C
   C495       1.0     0.398016     0.149482     0.610530    Uiso  ? C
   H296       1.0     0.409190     0.147241     0.597274    Uiso  ? H
   C496       1.0     0.429382     0.165546     0.632460    Uiso  ? C
   C497       1.0     0.352584     0.887141     0.569862    Uiso  ? C
   C498       1.0     0.352420     0.866255     0.582500    Uiso  ? C
   C499       1.0     0.333262     0.859083     0.593150    Uiso  ? C
   H297       1.0     0.317627     0.867577     0.591882    Uiso  ? H
   C500       1.0     0.334146     0.840433     0.606435    Uiso  ? C
   H298       1.0     0.319251     0.835405     0.614050    Uiso  ? H
   C501       1.0     0.352955     0.828309     0.608070    Uiso  ? C
   H299       1.0     0.351260     0.813102     0.617802    Uiso  ? H
   C502       1.0     0.372176     0.834818     0.597275    Uiso  ? C
   C503       1.0     0.371690     0.853781     0.584679    Uiso  ? C
   H300       1.0     0.386960     0.859740     0.576440    Uiso  ? H
   C504       1.0     0.391415     0.820466     0.596498    Uiso  ? C
   C505       1.0     0.342081     0.890557     0.518903    Uiso  ? C
   C506       1.0     0.334985     0.873205     0.503686    Uiso  ? C
   C507       1.0     0.312942     0.866534     0.503976    Uiso  ? C
   H301       1.0     0.300749     0.874030     0.514658    Uiso  ? H
   C508       1.0     0.305488     0.851476     0.488200    Uiso  ? C
   H302       1.0     0.288103     0.848420     0.486347    Uiso  ? H
   C509       1.0     0.319953     0.842438     0.473089    Uiso  ? C
   H303       1.0     0.314248     0.831435     0.460616    Uiso  ? H
   C510       1.0     0.342736     0.846999     0.474535    Uiso  ? C
   C511       1.0     0.349962     0.862687     0.489941    Uiso  ? C
   H304       1.0     0.367209     0.867077     0.490154    Uiso  ? H
   C512       1.0     0.358444     0.837246     0.459226    Uiso  ? C
   C513       1.0     0.466430     0.261568     0.473741    Uiso  ? C
   C514       1.0     0.485226     0.269528     0.459996    Uiso  ? C
   C515       1.0     0.487451     0.292052     0.455441    Uiso  ? C
   H305       1.0     0.475115     0.304212     0.460166    Uiso  ? H
   C516       1.0     0.505096     0.300269     0.443177    Uiso  ? C
   H306       1.0     0.506688     0.317558     0.439946    Uiso  ? H
   C517       1.0     0.521055     0.284939     0.435506    Uiso  ? C
   H307       1.0     0.534698     0.291322     0.426316    Uiso  ? H
   C518       1.0     0.519926     0.262602     0.441203    Uiso  ? C
   C519       1.0     0.501225     0.254782     0.452604    Uiso  ? C
   H308       1.0     0.499900     0.237625     0.457587    Uiso  ? H
   C520       1.0     0.536997     0.246931     0.434343    Uiso  ? C
   C521       1.0     0.447414     0.257708     0.541349    Uiso  ? C
   C522       1.0     0.452639     0.258116     0.565141    Uiso  ? C
   C523       1.0     0.447815     0.276812     0.576770    Uiso  ? C
   H309       1.0     0.442264     0.291614     0.568395    Uiso  ? H
   C524       1.0     0.449698     0.276598     0.599507    Uiso  ? C
   H310       1.0     0.448256     0.291525     0.608937    Uiso  ? H
   C525       1.0     0.456021     0.257271     0.611277    Uiso  ? C
   H311       1.0     0.456934     0.256574     0.629319    Uiso  ? H
   C526       1.0     0.460528     0.238395     0.599079    Uiso  ? C
   C527       1.0     0.459624     0.238918     0.576174    Uiso  ? C
   H312       1.0     0.462215     0.224535     0.566909    Uiso  ? H
   C528       1.0     0.465651     0.217238     0.609780    Uiso  ? C
   C529       1.0     0.417092     0.244942     0.462183    Uiso  ? C
   C530       1.0     0.407357     0.240897     0.439946    Uiso  ? C
   C531       1.0     0.393658     0.256961     0.430928    Uiso  ? C
   H313       1.0     0.391062     0.272080     0.440004    Uiso  ? H
   C532       1.0     0.383588     0.253118     0.411009    Uiso  ? C
   H314       1.0     0.371387     0.264799     0.404326    Uiso  ? H
   C533       1.0     0.389081     0.234285     0.398315    Uiso  ? C
   H315       1.0     0.381725     0.232514     0.382573    Uiso  ? H
   C534       1.0     0.403699     0.218516     0.406439    Uiso  ? C
   C535       1.0     0.412635     0.222034     0.427857    Uiso  ? C
   H316       1.0     0.422694     0.209190     0.434870    Uiso  ? H
   C536       1.0     0.409410     0.199602     0.393002    Uiso  ? C
   C537       1.0     0.509154     0.196793     0.631882    Uiso  ? C
   C538       1.0     0.531536     0.206223     0.631459    Uiso  ? C
   C539       1.0     0.538635     0.219183     0.648796    Uiso  ? C
   H317       1.0     0.527516     0.222968     0.661785    Uiso  ? H
   C540       1.0     0.559498     0.228422     0.649144    Uiso  ? C
   H318       1.0     0.563792     0.240118     0.662306    Uiso  ? H
   C541       1.0     0.574506     0.222968     0.632657    Uiso  ? C
   H319       1.0     0.591228     0.228373     0.634752    Uiso  ? H
   C542       1.0     0.567959     0.209726     0.615008    Uiso  ? C
   C543       1.0     0.546092     0.201882     0.614148    Uiso  ? C
   H320       1.0     0.540587     0.191651     0.600130    Uiso  ? H
   C544       1.0     0.583634     0.204725     0.597559    Uiso  ? C
   C545       1.0     0.495835     0.152555     0.651723    Uiso  ? C
   C546       1.0     0.510652     0.137283     0.663189    Uiso  ? C
   C547       1.0     0.518308     0.141860     0.684502    Uiso  ? C
   H321       1.0     0.513161     0.156481     0.693682    Uiso  ? H
   C548       1.0     0.533443     0.127631     0.694411    Uiso  ? C
   H322       1.0     0.540453     0.130569     0.710568    Uiso  ? H
   C549       1.0     0.540241     0.108231     0.683739    Uiso  ? C
   H323       1.0     0.550532     0.891248     0.691574    Uiso  ? H
   C550       1.0     0.532260     0.103729     0.662616    Uiso  ? C
   C551       1.0     0.518201     0.118486     0.652148    Uiso  ? C
   H324       1.0     0.514659     0.117124     0.634954    Uiso  ? H
   C552       1.0     0.541019     0.880513     0.649564    Uiso  ? C
   C553       1.0     0.466144     0.183104     0.367573    Uiso  ? C
   C554       1.0     0.487774     0.192869     0.361520    Uiso  ? C
   C555       1.0     0.493244     0.196621     0.339654    Uiso  ? C
   H325       1.0     0.481706     0.191961     0.326481    Uiso  ? H
   C556       1.0     0.513589     0.206156     0.334146    Uiso  ? C
   H326       1.0     0.517890     0.208842     0.317109    Uiso  ? H
   C557       1.0     0.528777     0.210686     0.351087    Uiso  ? C
   H327       1.0     0.544771     0.217232     0.346947    Uiso  ? H
   C558       1.0     0.523795     0.206394     0.373128    Uiso  ? C
   C559       1.0     0.503431     0.197065     0.378205    Uiso  ? C
   H328       1.0     0.499711     0.193615     0.394912    Uiso  ? H
   C560       1.0     0.539985     0.212129     0.390311    Uiso  ? C
   C561       1.0     0.402498     0.129340     0.374334    Uiso  ? C
   C562       1.0     0.388863     0.108648     0.372505    Uiso  ? C
   C563       1.0     0.372535     0.106004     0.356336    Uiso  ? C
   H329       1.0     0.370722     0.118442     0.343600    Uiso  ? H
   C564       1.0     0.358467     0.882866     0.355823    Uiso  ? C
   H330       1.0     0.346149     0.879892     0.342361    Uiso  ? H
   C565       1.0     0.360959     0.867211     0.372215    Uiso  ? C
   H331       1.0     0.350922     0.852032     0.371776    Uiso  ? H
   C566       1.0     0.376916     0.869182     0.388969    Uiso  ? C
   C567       1.0     0.390473     0.888017     0.388354    Uiso  ? C
   H332       1.0     0.403045     0.891359     0.401406    Uiso  ? H
   C568       1.0     0.381012     0.851981     0.404911    Uiso  ? C
   C569       1.0     0.394540     0.795240     0.466485    Uiso  ? C
   C570       1.0     0.397487     0.779883     0.485156    Uiso  ? C
   C571       1.0     0.390898     0.757400     0.483692    Uiso  ? C
   H333       1.0     0.385578     0.750814     0.468470    Uiso  ? H
   C572       1.0     0.392210     0.743913     0.502211    Uiso  ? C
   H334       1.0     0.386871     0.727122     0.501595    Uiso  ? H
   C573       1.0     0.400319     0.751746     0.521942    Uiso  ? C
   H335       1.0     0.401225     0.740319     0.535026    Uiso  ? H
   C574       1.0     0.407185     0.773645     0.524213    Uiso  ? C
   C575       1.0     0.405883     0.787705     0.505476    Uiso  ? C
   H336       1.0     0.410417     0.805234     0.507005    Uiso  ? H
   C576       1.0     0.413078     0.782712     0.546208    Uiso  ? C
   O271       1.0     0.371465     0.157163     0.533564    Uiso  ? O
   O272       1.0     0.336094     0.154376     0.527978    Uiso  ? O
   O273       1.0     0.380073     0.127519     0.573861    Uiso  ? O
   O274       1.0     0.347711     0.142717     0.580360    Uiso  ? O
   O275       1.0     0.371083     0.897425     0.566264    Uiso  ? O
   O276       1.0     0.335029     0.893988     0.561297    Uiso  ? O
   O277       1.0     0.362034     0.102678     0.517241    Uiso  ? O
   O278       1.0     0.330095     0.102575     0.534118    Uiso  ? O
   O279       1.0     0.461447     0.241079     0.474427    Uiso  ? O
   O280       1.0     0.456242     0.275225     0.485297    Uiso  ? O
   O281       1.0     0.459112     0.245579     0.529030    Uiso  ? O
   O282       1.0     0.430045     0.266337     0.534063    Uiso  ? O
   O283       1.0     0.414015     0.220354     0.509852    Uiso  ? O
   O284       1.0     0.397336     0.251714     0.500773    Uiso  ? O
   O285       1.0     0.434019     0.233858     0.468534    Uiso  ? O
   O286       1.0     0.407979     0.258580     0.475967    Uiso  ? O
   O287       1.0     0.499232     0.191860     0.613782    Uiso  ? O
   O288       1.0     0.498866     0.194356     0.650451    Uiso  ? O
   O289       1.0     0.487899     0.147607     0.633121    Uiso  ? O
   O290       1.0     0.491843     0.171713     0.660467    Uiso  ? O
   O291       1.0     0.438999     0.173481     0.615971    Uiso  ? O
   O292       1.0     0.438940     0.166087     0.650506    Uiso  ? O
   O293       1.0     0.478716     0.203225     0.601245    Uiso  ? O
   O294       1.0     0.457496     0.213348     0.628989    Uiso  ? O
   O295       1.0     0.462185     0.175644     0.387056    Uiso  ? O
   O296       1.0     0.450583     0.182327     0.353494    Uiso  ? O
   O297       1.0     0.413170     0.181251     0.402657    Uiso  ? O
   O298       1.0     0.411904     0.201457     0.372515    Uiso  ? O
   O299       1.0     0.421438     0.128857     0.383229    Uiso  ? O
   O300       1.0     0.396388     0.146606     0.364575    Uiso  ? O
   O301       1.0     0.445829     0.133934     0.371763    Uiso  ? O
   O302       1.0     0.442592     0.154838     0.342265    Uiso  ? O
   O303       1.0     0.392096     0.856306     0.421989    Uiso  ? O
   O304       1.0     0.373247     0.832637     0.401607    Uiso  ? O
   O305       1.0     0.378964     0.837010     0.464191    Uiso  ? O
   O306       1.0     0.350957     0.828137     0.441771    Uiso  ? O
   O307       1.0     0.393896     0.815733     0.469155    Uiso  ? O
   O308       1.0     0.388102     0.787457     0.447850    Uiso  ? O
   O309       1.0     0.419898     0.810978     0.419950    Uiso  ? O
   O310       1.0     0.390917     0.810460     0.397862    Uiso  ? O
   O311       1.0     0.585134     0.189947     0.414860    Uiso  ? O
   O312       1.0     0.606009     0.219493     0.416755    Uiso  ? O
   O313       1.0     0.573891     0.219555     0.458744    Uiso  ? O
   O314       1.0     0.598828     0.235919     0.437483    Uiso  ? O
   O315       1.0     0.533033     0.226245     0.432264    Uiso  ? O
   O316       1.0     0.556205     0.253947     0.429417    Uiso  ? O
   O317       1.0     0.534364     0.210796     0.410293    Uiso  ? O
   O318       1.0     0.559595     0.218589     0.385853    Uiso  ? O
   O319       1.0     0.409774     0.123319     0.527775    Uiso  ? O
   O320       1.0     0.461926     0.197915     0.507286    Uiso  ? O
   O321       1.0     0.473909     0.149543     0.584671    Uiso  ? O
   O322       1.0     0.439404     0.146894     0.427729    Uiso  ? O
   O323       1.0     0.433526     0.849900     0.451690    Uiso  ? O
   O324       1.0     0.548361     0.173733     0.447360    Uiso  ? O
   Zn61       1.0     0.377778     0.123301     0.538560    Uiso  ? Zn
   Zn62       1.0     0.330148     0.132490     0.553191    Uiso  ? Zn
   Zn63       1.0     0.445629     0.228880     0.502696    Uiso  ? Zn
   Zn64       1.0     0.425821     0.273681     0.501531    Uiso  ? Zn
   Zn65       1.0     0.472844     0.170429     0.612301    Uiso  ? Zn
   Zn66       1.0     0.463411     0.190005     0.653928    Uiso  ? Zn
   Zn67       1.0     0.436022     0.157052     0.395531    Uiso  ? Zn
   Zn68       1.0     0.415863     0.173508     0.353545    Uiso  ? Zn
   Zn69       1.0     0.406074     0.832875     0.442273    Uiso  ? Zn
   Zn70       1.0     0.369647     0.805349     0.424235    Uiso  ? Zn
   Zn71       1.0     0.558873     0.202782     0.433570    Uiso  ? Zn
   Zn72       1.0     0.577494     0.238489     0.408823    Uiso  ? Zn
   H337       1.0     0.462439     0.190893     0.522045    Uiso  ? H
   H338       1.0     0.467838     0.190559     0.494937    Uiso  ? H
   H339       1.0     0.542013     0.829297     0.488441    Uiso  ? H
   H340       1.0     0.517911     0.825345     0.499420    Uiso  ? H
   H341       1.0     0.449969     0.850278     0.550138    Uiso  ? H
   H342       1.0     0.455796     0.855077     0.575423    Uiso  ? H
   H343       1.0     0.530805     0.870893     0.571350    Uiso  ? H
   H344       1.0     0.552624     0.888215     0.573982    Uiso  ? H
   H345       1.0     0.533284     0.172992     0.452497    Uiso  ? H
   H346       1.0     0.558607     0.161290     0.449498    Uiso  ? H
   H347       1.0     0.574085     0.885408     0.469112    Uiso  ? H
   H348       1.0     0.582542     0.112017     0.483686    Uiso  ? H
   H349       1.0     0.550928     0.170548     0.544813    Uiso  ? H
   H350       1.0     0.562957     0.146312     0.545919    Uiso  ? H
   H351       1.0     0.432701     0.133059     0.430753    Uiso  ? H
   H352       1.0     0.449369     0.154622     0.436824    Uiso  ? H
   H353       1.0     0.510155     0.883710     0.415508    Uiso  ? H
   H354       1.0     0.520727     0.862874     0.429711    Uiso  ? H
   H355       1.0     0.440674     0.858454     0.440096    Uiso  ? H
   H356       1.0     0.437853     0.850933     0.466930    Uiso  ? H
   H357       1.0     0.487354     0.141566     0.583174    Uiso  ? H
   H358       1.0     0.461032     0.145894     0.575818    Uiso  ? H
   H359       1.0     0.418739     0.135579     0.532966    Uiso  ? H
   H360       1.0     0.415020     0.112437     0.518027    Uiso  ? H
   C577       1.0     0.442051     0.358344     0.869956    Uiso  ? C
   C578       1.0     0.459932     0.344302     0.878300    Uiso  ? C
   C579       1.0     0.463406     0.323508     0.869159    Uiso  ? C
   H361       1.0     0.451507     0.316997     0.857544    Uiso  ? H
   C580       1.0     0.480507     0.310035     0.876377    Uiso  ? C
   H362       1.0     0.483015     0.294319     0.868764    Uiso  ? H
   C581       1.0     0.494644     0.317283     0.892144    Uiso  ? C
   H363       1.0     0.508263     0.307377     0.897329    Uiso  ? H
   C582       1.0     0.491622     0.339340     0.101451    Uiso  ? C
   C583       1.0     0.474793     0.352050     0.894011    Uiso  ? C
   H364       1.0     0.473295     0.369213     0.101099    Uiso  ? H
   C584       1.0     0.505879     0.347129     0.118998    Uiso  ? C
   C585       1.0     0.387263     0.393399     0.883833    Uiso  ? C
   C586       1.0     0.373935     0.397887     0.103916    Uiso  ? C
   C587       1.0     0.354983     0.385019     0.108305    Uiso  ? C
   H365       1.0     0.348089     0.373132     0.895991    Uiso  ? H
   C588       1.0     0.345621     0.384982     0.129159    Uiso  ? C
   H366       1.0     0.332200     0.375727     0.132275    Uiso  ? H
   C589       1.0     0.353915     0.398865     0.145150    Uiso  ? C
   H367       1.0     0.346622     0.398443     0.161185    Uiso  ? H
   C590       1.0     0.372719     0.411000     0.141709    Uiso  ? C
   C591       1.0     0.382123     0.411388     0.120888    Uiso  ? C
   H368       1.0     0.396902     0.420176     0.118030    Uiso  ? H
   C592       1.0     0.383440     0.421977     0.159872    Uiso  ? C
   C593       1.0     0.403558     0.410273     0.819201    Uiso  ? C
   C594       1.0     0.396427     0.423874     0.800958    Uiso  ? C
   C595       1.0     0.378431     0.417222     0.788202    Uiso  ? C
   H369       1.0     0.371219     0.401045     0.789047    Uiso  ? H
   C596       1.0     0.370560     0.431409     0.771879    Uiso  ? C
   H370       1.0     0.357965     0.426035     0.760602    Uiso  ? H
   C597       1.0     0.379719     0.452005     0.767861    Uiso  ? C
   H371       1.0     0.372424     0.462112     0.754601    Uiso  ? H
   C598       1.0     0.397587     0.459221     0.780428    Uiso  ? C
   C599       1.0     0.406044     0.444429     0.796620    Uiso  ? C
   H372       1.0     0.418644     0.450607     0.807989    Uiso  ? H
   C600       1.0     0.407365     0.480435     0.776659    Uiso  ? C
   C601       1.0     0.444106     0.380197     0.821409    Uiso  ? C
   C602       1.0     0.460759     0.375905     0.804118    Uiso  ? C
   C603       1.0     0.460216     0.356441     0.792063    Uiso  ? C
   H373       1.0     0.446912     0.344653     0.794042    Uiso  ? H
   C604       1.0     0.476188     0.351525     0.776398    Uiso  ? C
   H374       1.0     0.475747     0.335588     0.767500    Uiso  ? H
   C605       1.0     0.493231     0.366155     0.772460    Uiso  ? C
   H375       1.0     0.505003     0.362404     0.759132    Uiso  ? H
   C606       1.0     0.495437     0.385732     0.784563    Uiso  ? C
   C607       1.0     0.478989     0.390250     0.800792    Uiso  ? C
   H376       1.0     0.481614     0.404568     0.811512    Uiso  ? H
   C608       1.0     0.514094     0.401098     0.780897    Uiso  ? C
   C609       1.0     0.551164     0.379746     0.184720    Uiso  ? C
   C610       1.0     0.564684     0.389300     0.203065    Uiso  ? C
   C611       1.0     0.577040     0.375475     0.216784    Uiso  ? C
   H377       1.0     0.578581     0.357645     0.212736    Uiso  ? H
   C612       1.0     0.589845     0.384320     0.233638    Uiso  ? C
   H378       1.0     0.599946     0.373731     0.243042    Uiso  ? H
   C613       1.0     0.590649     0.406987     0.237045    Uiso  ? C
   H379       1.0     0.601445     0.413760     0.249323    Uiso  ? H
   C614       1.0     0.577758     0.421590     0.223903    Uiso  ? C
   C615       1.0     0.565014     0.412170     0.206619    Uiso  ? C
   H380       1.0     0.554962     0.423083     0.196472    Uiso  ? H
   C616       1.0     0.578497     0.445558     0.227113    Uiso  ? C
   C617       1.0     0.500430     0.372022     0.180037    Uiso  ? C
   C618       1.0     0.482764     0.375914     0.195898    Uiso  ? C
   C619       1.0     0.481138     0.363506     0.215097    Uiso  ? C
   H381       1.0     0.493577     0.351002     0.218131    Uiso  ? H
   C620       1.0     0.464640     0.367963     0.230560    Uiso  ? C
   H382       1.0     0.464041     0.358066     0.245608    Uiso  ? H
   C621       1.0     0.449221     0.383917     0.226386    Uiso  ? C
   H383       1.0     0.437404     0.387115     0.239047    Uiso  ? H
   C622       1.0     0.450122     0.396699     0.206868    Uiso  ? C
   C623       1.0     0.467103     0.392247     0.191616    Uiso  ? C
   H384       1.0     0.468013     0.402196     0.176658    Uiso  ? H
   C624       1.0     0.432396     0.413378     0.202476    Uiso  ? C
   C625       1.0     0.572562     0.365467     0.139658    Uiso  ? C
   C626       1.0     0.596265     0.367682     0.134317    Uiso  ? C
   C627       1.0     0.611732     0.353171     0.143072    Uiso  ? C
   H385       1.0     0.605666     0.338653     0.151817    Uiso  ? H
   C628       1.0     0.634502     0.356835     0.139983    Uiso  ? C
   H386       1.0     0.646690     0.345459     0.146261    Uiso  ? H
   C629       1.0     0.641529     0.375483     0.128436    Uiso  ? C
   H387       1.0     0.659334     0.377936     0.125609    Uiso  ? H
   C630       1.0     0.626309     0.389504     0.118638    Uiso  ? C
   C631       1.0     0.603892     0.384419     0.120206    Uiso  ? C
   H388       1.0     0.591868     0.395350     0.112940    Uiso  ? H
   C632       1.0     0.632657     0.409597     0.107047    Uiso  ? C
   C633       1.0     0.406482     0.477454     0.216684    Uiso  ? C
   C634       1.0     0.407677     0.498506     0.229039    Uiso  ? C
   C635       1.0     0.394580     0.500726     0.247804    Uiso  ? C
   H389       1.0     0.384049     0.487067     0.252506    Uiso  ? H
   C636       1.0     0.396478     0.518998     0.261539    Uiso  ? C
   H390       1.0     0.386192     0.520207     0.275731    Uiso  ? H
   C637       1.0     0.411252     0.535917     0.255959    Uiso  ? C
   H391       1.0     0.413354     0.549398     0.267056    Uiso  ? H
   C638       1.0     0.423319     0.535047     0.235773    Uiso  ? C
   C639       1.0     0.421895     0.515825     0.223263    Uiso  ? C
   H392       1.0     0.431917     0.514130     0.208169    Uiso  ? H
   C640       1.0     0.438068     0.553636     0.229541    Uiso  ? C
   C641       1.0     0.372671     0.469529     0.178013    Uiso  ? C
   C642       1.0     0.355771     0.485591     0.171352    Uiso  ? C
   C643       1.0     0.335649     0.486954     0.182883    Uiso  ? C
   H393       1.0     0.331387     0.476719     0.197158    Uiso  ? H
   C644       1.0     0.320347     0.502919     0.176808    Uiso  ? C
   H394       1.0     0.305366     0.504565     0.185374    Uiso  ? H
   C645       1.0     0.326393     0.518916     0.161434    Uiso  ? C
   H395       1.0     0.314863     0.532486     0.158159    Uiso  ? H
   C646       1.0     0.346033     0.517543     0.150216    Uiso  ? C
   C647       1.0     0.361076     0.501031     0.154821    Uiso  ? C
   H396       1.0     0.376447     0.500127     0.146452    Uiso  ? H
   C648       1.0     0.351772     0.533877     0.132488    Uiso  ? C
   C649       1.0     0.645840     0.452024     0.132806    Uiso  ? C
   C650       1.0     0.648365     0.453867     0.157101    Uiso  ? C
   C651       1.0     0.668358     0.448756     0.167570    Uiso  ? C
   H397       1.0     0.682018     0.442721     0.157877    Uiso  ? H
   C652       1.0     0.670875     0.453430     0.189431    Uiso  ? C
   H398       1.0     0.686161     0.450508     0.197207    Uiso  ? H
   C653       1.0     0.653094     0.460604     0.201905    Uiso  ? C
   H399       1.0     0.654536     0.462197     0.219727    Uiso  ? H
   C654       1.0     0.632679     0.464457     0.192196    Uiso  ? C
   C655       1.0     0.630615     0.461395     0.169571    Uiso  ? C
   H400       1.0     0.615396     0.466167     0.161755    Uiso  ? H
   C656       1.0     0.613721     0.472705     0.204949    Uiso  ? C
   C657       1.0     0.631130     0.420950     0.856758    Uiso  ? C
   C658       1.0     0.626302     0.409509     0.836123    Uiso  ? C
   C659       1.0     0.641715     0.395163     0.827364    Uiso  ? C
   H401       1.0     0.656513     0.391158     0.837269    Uiso  ? H
   C660       1.0     0.637325     0.384622     0.807456    Uiso  ? C
   H402       1.0     0.649082     0.373043     0.800507    Uiso  ? H
   C661       1.0     0.617685     0.390134     0.795599    Uiso  ? C
   H403       1.0     0.614031     0.382988     0.779883    Uiso  ? H
   C662       1.0     0.601908     0.403871     0.805186    Uiso  ? C
   C663       1.0     0.606018     0.413455     0.826022    Uiso  ? C
   H404       1.0     0.593814     0.424240     0.833354    Uiso  ? H
   C664       1.0     0.581874     0.410009     0.793131    Uiso  ? C
   C665       1.0     0.517243     0.445226     0.752362    Uiso  ? C
   C666       1.0     0.499512     0.455785     0.739721    Uiso  ? C
   C667       1.0     0.498887     0.454613     0.716879    Uiso  ? C
   H405       1.0     0.510179     0.444503     0.708204    Uiso  ? H
   C668       1.0     0.483477     0.466583     0.705239    Uiso  ? C
   H406       1.0     0.483232     0.465195     0.687656    Uiso  ? H
   C669       1.0     0.467419     0.478689     0.716728    Uiso  ? C
   H407       1.0     0.454401     0.485696     0.706586    Uiso  ? H
   C670       1.0     0.467675     0.479643     0.739409    Uiso  ? C
   C671       1.0     0.483900     0.468001     0.751110    Uiso  ? C
   H408       1.0     0.484715     0.468620     0.768801    Uiso  ? H
   C672       1.0     0.451856     0.493458     0.751279    Uiso  ? C
   O325       1.0     0.440615     0.377705     0.877683    Uiso  ? O
   O326       1.0     0.431382     0.352748     0.852723    Uiso  ? O
   O327       1.0     0.396628     0.410054     0.875368    Uiso  ? O
   O328       1.0     0.391611     0.374014     0.877452    Uiso  ? O
   O329       1.0     0.421158     0.415540     0.829513    Uiso  ? O
   O330       1.0     0.392374     0.393814     0.824825    Uiso  ? O
   O331       1.0     0.443216     0.398906     0.830721    Uiso  ? O
   O332       1.0     0.430840     0.364893     0.827804    Uiso  ? O
   O333       1.0     0.537952     0.392434     0.173905    Uiso  ? O
   O334       1.0     0.554772     0.360195     0.177690    Uiso  ? O
   O335       1.0     0.511297     0.388386     0.171712    Uiso  ? O
   O336       1.0     0.505480     0.352328     0.175467    Uiso  ? O
   O337       1.0     0.502837     0.366250     0.126746    Uiso  ? O
   O338       1.0     0.522454     0.335978     0.125900    Uiso  ? O
   O339       1.0     0.559371     0.379245     0.131610    Uiso  ? O
   O340       1.0     0.565625     0.351632     0.153492    Uiso  ? O
   O341       1.0     0.420482     0.473995     0.201729    Uiso  ? O
   O342       1.0     0.390292     0.464573     0.219265    Uiso  ? O
   O343       1.0     0.388182     0.464844     0.164605    Uiso  ? O
   O344       1.0     0.371608     0.460489     0.197306    Uiso  ? O
   O345       1.0     0.395303     0.438688     0.155606    Uiso  ? O
   O346       1.0     0.379889     0.416625     0.179645    Uiso  ? O
   O347       1.0     0.432347     0.422990     0.184103    Uiso  ? O
   O348       1.0     0.418027     0.418110     0.217370    Uiso  ? O
   O349       1.0     0.628901     0.459346     0.122867    Uiso  ? O
   O350       1.0     0.660169     0.440890     0.122339    Uiso  ? O
   O351       1.0     0.619016     0.419898     0.896594    Uiso  ? O
   O352       1.0     0.652385     0.416681     0.108504    Uiso  ? O
   O353       1.0     0.615583     0.426032     0.870083    Uiso  ? O
   O354       1.0     0.650495     0.426216     0.861137    Uiso  ? O
   O355       1.0     0.640031     0.474881     0.870152    Uiso  ? O
   O356       1.0     0.672918     0.472160     0.884043    Uiso  ? O
   O357       1.0     0.564387     0.413386     0.803385    Uiso  ? O
   O358       1.0     0.582592     0.412472     0.772580    Uiso  ? O
   O359       1.0     0.513537     0.420527     0.788548    Uiso  ? O
   O360       1.0     0.530675     0.394884     0.769974    Uiso  ? O
   O361       1.0     0.515016     0.442939     0.773192    Uiso  ? O
   O362       1.0     0.534834     0.439035     0.742928    Uiso  ? O
   O363       1.0     0.559608     0.462923     0.779670    Uiso  ? O
   O364       1.0     0.560927     0.448332     0.746673    Uiso  ? O
   O365       1.0     0.586816     0.519978     0.207986    Uiso  ? O
   O366       1.0     0.613537     0.509914     0.230691    Uiso  ? O
   O367       1.0     0.544302     0.495094     0.232208    Uiso  ? O
   O368       1.0     0.567571     0.506493     0.257741    Uiso  ? O
   O369       1.0     0.574406     0.457472     0.210429    Uiso  ? O
   O370       1.0     0.586274     0.454366     0.244084    Uiso  ? O
   O371       1.0     0.594314     0.469740     0.197267    Uiso  ? O
   O372       1.0     0.616817     0.482914     0.223062    Uiso  ? O
   O373       1.0     0.444346     0.429658     0.881752    Uiso  ? O
   O374       1.0     0.520833     0.413097     0.123901    Uiso  ? O
   O375       1.0     0.446136     0.464147     0.155825    Uiso  ? O
   O376       1.0     0.591036     0.469089     0.887589    Uiso  ? O
   O377       1.0     0.540751     0.453801     0.824394    Uiso  ? O
   O378       1.0     0.546392     0.496793     0.183085    Uiso  ? O
   Zn73       1.0     0.427332     0.405259     0.862581    Uiso  ? Zn
   Zn74       1.0     0.400268     0.367312     0.845547    Uiso  ? Zn
   Zn75       1.0     0.526922     0.385244     0.141654    Uiso  ? Zn
   Zn76       1.0     0.532590     0.341011     0.158154    Uiso  ? Zn
   Zn77       1.0     0.418664     0.453468     0.175890    Uiso  ? Zn
   Zn78       1.0     0.387793     0.431670     0.209124    Uiso  ? Zn
   Zn79       1.0     0.621416     0.454226     0.890347    Uiso  ? Zn
   Zn80       1.0     0.668181     0.439213     0.888490    Uiso  ? Zn
   Zn81       1.0     0.542153     0.437255     0.794459    Uiso  ? Zn
   Zn82       1.0     0.555097     0.413839     0.753471    Uiso  ? Zn
   Zn83       1.0     0.568150     0.491747     0.207748    Uiso  ? Zn
   Zn84       1.0     0.594259     0.487665     0.249940    Uiso  ? Zn
   C673       1.0     0.568604     0.649797     0.125638    Uiso  ? C
   C674       1.0     0.555732     0.664758     0.112246    Uiso  ? C
   C675       1.0     0.559237     0.687595     0.112586    Uiso  ? C
   H409       1.0     0.571661     0.693815     0.123478    Uiso  ? H
   C676       1.0     0.546589     0.700729     0.899920    Uiso  ? C
   H410       1.0     0.550314     0.717881     0.898871    Uiso  ? H
   C677       1.0     0.529871     0.692319     0.886905    Uiso  ? C
   H411       1.0     0.519834     0.704182     0.877071    Uiso  ? H
   C678       1.0     0.526552     0.669879     0.885134    Uiso  ? C
   C679       1.0     0.539437     0.655733     0.898320    Uiso  ? C
   H412       1.0     0.536088     0.638058     0.897316    Uiso  ? H
   C680       1.0     0.509108     0.660203     0.870614    Uiso  ? C
   C681       1.0     0.613079     0.626681     0.109582    Uiso  ? C
   C682       1.0     0.621423     0.628302     0.887394    Uiso  ? C
   C683       1.0     0.631138     0.648149     0.880993    Uiso  ? C
   H413       1.0     0.633612     0.661053     0.892715    Uiso  ? H
   C684       1.0     0.639531     0.650722     0.859954    Uiso  ? C
   H414       1.0     0.647118     0.665210     0.855337    Uiso  ? H
   C685       1.0     0.636093     0.634276     0.843803    Uiso  ? C
   H415       1.0     0.641715     0.637385     0.827574    Uiso  ? H
   C686       1.0     0.625836     0.614533     0.849241    Uiso  ? C
   C687       1.0     0.619519     0.612021     0.871397    Uiso  ? C
   H416       1.0     0.612098     0.596251     0.876525    Uiso  ? H
   C688       1.0     0.621383     0.597219     0.832637    Uiso  ? C
   C689       1.0     0.613273     0.592561     0.171586    Uiso  ? C
   C690       1.0     0.623129     0.576028     0.186737    Uiso  ? C
   C691       1.0     0.643746     0.579989     0.196952    Uiso  ? C
   H417       1.0     0.652372     0.595467     0.193500    Uiso  ? H
   C692       1.0     0.652085     0.565266     0.212462    Uiso  ? C
   H418       1.0     0.668762     0.566963     0.217785    Uiso  ? H
   C693       1.0     0.639034     0.547340     0.219257    Uiso  ? C
   H419       1.0     0.645512     0.535756     0.231143    Uiso  ? H
   C694       1.0     0.618430     0.543100     0.210101    Uiso  ? C
   C695       1.0     0.610839     0.557408     0.193260    Uiso  ? C
   H420       1.0     0.595622     0.553025     0.184549    Uiso  ? H
   C696       1.0     0.605139     0.523495     0.216925    Uiso  ? C
   C697       1.0     0.563029     0.637919     0.175051    Uiso  ? C
   C698       1.0     0.545877     0.642396     0.191463    Uiso  ? C
   C699       1.0     0.548114     0.659893     0.206461    Uiso  ? C
   H421       1.0     0.562233     0.670305     0.204743    Uiso  ? H
   C700       1.0     0.532580     0.663320     0.222459    Uiso  ? C
   H422       1.0     0.533873     0.677507     0.232345    Uiso  ? H
   C701       1.0     0.514354     0.649488     0.224438    Uiso  ? C
   H423       1.0     0.503098     0.651825     0.237786    Uiso  ? H
   C702       1.0     0.511891     0.631657     0.210150    Uiso  ? C
   C703       1.0     0.527802     0.627947     0.193606    Uiso  ? C
   H424       1.0     0.526397     0.613408     0.183375    Uiso  ? H
   C704       1.0     0.494140     0.615689     0.214183    Uiso  ? C
   C705       1.0     0.469836     0.623501     0.806189    Uiso  ? C
   C706       1.0     0.462810     0.612937     0.785665    Uiso  ? C
   C707       1.0     0.460608     0.624946     0.766868    Uiso  ? C
   H425       1.0     0.466076     0.641666     0.766428    Uiso  ? H
   C708       1.0     0.451400     0.615644     0.748602    Uiso  ? C
   H426       1.0     0.449147     0.625511     0.734207    Uiso  ? H
   C709       1.0     0.444720     0.593487     0.748174    Uiso  ? C
   H427       1.0     0.437263     0.586160     0.733733    Uiso  ? H
   C710       1.0     0.448251     0.580826     0.767144    Uiso  ? C
   C711       1.0     0.458224     0.590295     0.785587    Uiso  ? C
   H428       1.0     0.462300     0.579620     0.799617    Uiso  ? H
   C712       1.0     0.441719     0.557657     0.768182    Uiso  ? C
   C713       1.0     0.514893     0.643489     0.818961    Uiso  ? C
   C714       1.0     0.535602     0.642639     0.806860    Uiso  ? C
   C715       1.0     0.541481     0.660473     0.792600    Uiso  ? C
   H429       1.0     0.531451     0.675356     0.791356    Uiso  ? H
   C716       1.0     0.561805     0.659717     0.781396    Uiso  ? C
   H430       1.0     0.565882     0.674179     0.771569    Uiso  ? H
   C717       1.0     0.575438     0.641046     0.783513    Uiso  ? C
   H431       1.0     0.590081     0.639942     0.774176    Uiso  ? H
   C718       1.0     0.569520     0.623000     0.796951    Uiso  ? C
   C719       1.0     0.549860     0.624649     0.808570    Uiso  ? C
   H432       1.0     0.545183     0.611062     0.818492    Uiso  ? H
   C720       1.0     0.583910     0.603696     0.798777    Uiso  ? C
   C721       1.0     0.440127     0.645519     0.861703    Uiso  ? C
   C722       1.0     0.417796     0.644170     0.870964    Uiso  ? C
   C723       1.0     0.404582     0.663307     0.872203    Uiso  ? C
   H433       1.0     0.411246     0.678859     0.866709    Uiso  ? H
   C724       1.0     0.382715     0.661811     0.878938    Uiso  ? C
   H434       1.0     0.372258     0.677106     0.877531    Uiso  ? H
   C725       1.0     0.373763     0.641843     0.886009    Uiso  ? C
   H435       1.0     0.356330     0.641574     0.890350    Uiso  ? H
   C726       1.0     0.386881     0.623063     0.886071    Uiso  ? C
   C727       1.0     0.408295     0.624625     0.878485    Uiso  ? C
   H436       1.0     0.417545     0.609506     0.877831    Uiso  ? H
   C728       1.0     0.378496     0.601538     0.893212    Uiso  ? C
   C729       1.0     0.596897     0.538749     0.774536    Uiso  ? C
   C730       1.0     0.590726     0.521881     0.758247    Uiso  ? C
   C731       1.0     0.593005     0.525681     0.735422    Uiso  ? C
   H437       1.0     0.599603     0.540818     0.729482    Uiso  ? H
   C732       1.0     0.588299     0.508772     0.720840    Uiso  ? C
   H438       1.0     0.592014     0.510856     0.702818    Uiso  ? H
   C733       1.0     0.578026     0.489174     0.727710    Uiso  ? C
   H439       1.0     0.574575     0.476834     0.715358    Uiso  ? H
   C734       1.0     0.574570     0.485356     0.750484    Uiso  ? C
   C735       1.0     0.581865     0.501859     0.765318    Uiso  ? C
   H440       1.0     0.580469     0.498594     0.782466    Uiso  ? H
   C736       1.0     0.565365     0.464344     0.759115    Uiso  ? C
   C737       1.0     0.639706     0.549381     0.828575    Uiso  ? C
   C738       1.0     0.656146     0.537075     0.841401    Uiso  ? C
   C739       1.0     0.678533     0.541781     0.838574    Uiso  ? C
   H441       1.0     0.683580     0.556415     0.829899    Uiso  ? H
   C740       1.0     0.694733     0.528059     0.848765    Uiso  ? C
   H442       1.0     0.711745     0.532801     0.845483    Uiso  ? H
   C741       1.0     0.688593     0.508718     0.859140    Uiso  ? C
   H443       1.0     0.701054     0.498386     0.865159    Uiso  ? H
   C742       1.0     0.666312     0.502757     0.860705    Uiso  ? C
   C743       1.0     0.650447     0.517390     0.852700    Uiso  ? C
   H444       1.0     0.633181     0.514473     0.853788    Uiso  ? H
   C744       1.0     0.659403     0.481984     0.871627    Uiso  ? C
   C745       1.0     0.351347     0.546339     0.863523    Uiso  ? C
   C746       1.0     0.349296     0.539835     0.841012    Uiso  ? C
   C747       1.0     0.329024     0.539544     0.830365    Uiso  ? C
   H445       1.0     0.313925     0.544825     0.838329    Uiso  ? H
   C748       1.0     0.327020     0.533675     0.807840    Uiso  ? C
   H446       1.0     0.311680     0.535912     0.798912    Uiso  ? H
   C749       1.0     0.345714     0.526723     0.796129    Uiso  ? C
   H447       1.0     0.343506     0.523299     0.778433    Uiso  ? H
   C750       1.0     0.366643     0.527881     0.806740    Uiso  ? C
   C751       1.0     0.368409     0.533790     0.829216    Uiso  ? C
   H448       1.0     0.383696     0.533946     0.837310    Uiso  ? H
   C752       1.0     0.386595     0.523958     0.793740    Uiso  ? C
   C753       1.0     0.372115     0.582715     0.139495    Uiso  ? C
   C754       1.0     0.379051     0.594599     0.159464    Uiso  ? C
   C755       1.0     0.367153     0.612353     0.167004    Uiso  ? C
   H449       1.0     0.352914     0.617987     0.157745    Uiso  ? H
   C756       1.0     0.374214     0.623960     0.185095    Uiso  ? C
   H450       1.0     0.365204     0.638255     0.190476    Uiso  ? H
   C757       1.0     0.392903     0.617136     0.196729    Uiso  ? C
   H451       1.0     0.397582     0.626461     0.211812    Uiso  ? H
   C758       1.0     0.406253     0.600004     0.188857    Uiso  ? C
   C759       1.0     0.398478     0.587857     0.170335    Uiso  ? C
   H452       1.0     0.407731     0.573833     0.164451    Uiso  ? H
   C760       1.0     0.427157     0.594588     0.199510    Uiso  ? C
   C761       1.0     0.486855     0.558214     0.245131    Uiso  ? C
   C762       1.0     0.500553     0.542988     0.258773    Uiso  ? C
   C763       1.0     0.496872     0.540273     0.281733    Uiso  ? C
   H453       1.0     0.484090     0.548193     0.290967    Uiso  ? H
   C764       1.0     0.509810     0.525448     0.293596    Uiso  ? C
   H454       1.0     0.507278     0.524628     0.311161    Uiso  ? H
   C765       1.0     0.526319     0.514031     0.283570    Uiso  ? C
   H455       1.0     0.537192     0.502896     0.293095    Uiso  ? H
   C766       1.0     0.530222     0.516423     0.261109    Uiso  ? C
   C767       1.0     0.517683     0.531163     0.248893    Uiso  ? C
   H456       1.0     0.522156     0.533693     0.231897    Uiso  ? H
   C768       1.0     0.548276     0.505123     0.249925    Uiso  ? C
   O379       1.0     0.559311     0.632082     0.131455    Uiso  ? O
   O380       1.0     0.588375     0.654391     0.130939    Uiso  ? O
   O381       1.0     0.603301     0.609043     0.114351    Uiso  ? O
   O382       1.0     0.611181     0.643396     0.122093    Uiso  ? O
   O383       1.0     0.593972     0.588851     0.164374    Uiso  ? O
   O384       1.0     0.622609     0.610390     0.166407    Uiso  ? O
   O385       1.0     0.559156     0.623950     0.159938    Uiso  ? O
   O386       1.0     0.581843     0.646434     0.176681    Uiso  ? O
   O387       1.0     0.472319     0.611795     0.822794    Uiso  ? O
   O388       1.0     0.472821     0.644922     0.807160    Uiso  ? O
   O389       1.0     0.512193     0.632272     0.836406    Uiso  ? O
   O390       1.0     0.499115     0.656153     0.812588    Uiso  ? O
   O391       1.0     0.510335     0.640145     0.864596    Uiso  ? O
   O392       1.0     0.495353     0.672606     0.861762    Uiso  ? O
   O393       1.0     0.455156     0.632391     0.868242    Uiso  ? O
   O394       1.0     0.443887     0.659338     0.846755    Uiso  ? O
   O395       1.0     0.596316     0.534330     0.794424    Uiso  ? O
   O396       1.0     0.604156     0.557444     0.768302    Uiso  ? O
   O397       1.0     0.620728     0.552814     0.837191    Uiso  ? O
   O398       1.0     0.643771     0.557272     0.809554    Uiso  ? O
   O399       1.0     0.611712     0.579328     0.837950    Uiso  ? O
   O400       1.0     0.624246     0.601809     0.812060    Uiso  ? O
   O401       1.0     0.576845     0.586078     0.807861    Uiso  ? O
   O402       1.0     0.604123     0.605084     0.792706    Uiso  ? O
   O403       1.0     0.366287     0.537762     0.875118    Uiso  ? O
   O404       1.0     0.341382     0.562760     0.870805    Uiso  ? O
   O405       1.0     0.390542     0.584751     0.890951    Uiso  ? O
   O406       1.0     0.359228     0.601097     0.101173    Uiso  ? O
   O407       1.0     0.382192     0.565148     0.133086    Uiso  ? O
   O408       1.0     0.357144     0.590723     0.127273    Uiso  ? O
   O409       1.0     0.371672     0.540129     0.130157    Uiso  ? O
   O410       1.0     0.336982     0.543912     0.122178    Uiso  ? O
   O411       1.0     0.438229     0.578081     0.193167    Uiso  ? O
   O412       1.0     0.433323     0.606287     0.215819    Uiso  ? O
   O413       1.0     0.486722     0.604378     0.198186    Uiso  ? O
   O414       1.0     0.487078     0.612944     0.233606    Uiso  ? O
   O415       1.0     0.490796     0.559666     0.225131    Uiso  ? O
   O416       1.0     0.471717     0.569941     0.253617    Uiso  ? O
   O417       1.0     0.443550     0.556643     0.209725    Uiso  ? O
   O418       1.0     0.444809     0.566469     0.244424    Uiso  ? O
   O419       1.0     0.426259     0.485527     0.784811    Uiso  ? O
   O420       1.0     0.396554     0.494596     0.765385    Uiso  ? O
   O421       1.0     0.450283     0.492443     0.772193    Uiso  ? O
   O422       1.0     0.438117     0.504880     0.740431    Uiso  ? O
   O423       1.0     0.452350     0.543136     0.779242    Uiso  ? O
   O424       1.0     0.423685     0.553094     0.759589    Uiso  ? O
   O425       1.0     0.404971     0.525331     0.802942    Uiso  ? O
   O426       1.0     0.385796     0.518753     0.773656    Uiso  ? O
   O427       1.0     0.562038     0.577278     0.125472    Uiso  ? O
   O428       1.0     0.487013     0.592195     0.869448    Uiso  ? O
   O429       1.0     0.565700     0.543833     0.832631    Uiso  ? O
   O430       1.0     0.413435     0.538033     0.893309    Uiso  ? O
   O431       1.0     0.487572     0.560199     0.171087    Uiso  ? O
   O432       1.0     0.454485     0.517577     0.821327    Uiso  ? O
   Zn85       1.0     0.578899     0.604114     0.138527    Uiso  ? Zn
   Zn86       1.0     0.608583     0.641120     0.156671    Uiso  ? Zn
   Zn87       1.0     0.482741     0.622050     0.852391    Uiso  ? Zn
   Zn88       1.0     0.475384     0.667641     0.834994    Uiso  ? Zn
   Zn89       1.0     0.593131     0.558498     0.817663    Uiso  ? Zn
   Zn90       1.0     0.625712     0.577162     0.787157    Uiso  ? Zn
   Zn91       1.0     0.383880     0.553486     0.100261    Uiso  ? Zn
   Zn92       1.0     0.338129     0.572927     0.103195    Uiso  ? Zn
   Zn93       1.0     0.472867     0.573665     0.198643    Uiso  ? Zn
   Zn94       1.0     0.456615     0.599254     0.240787    Uiso  ? Zn
   Zn95       1.0     0.436482     0.516743     0.792509    Uiso  ? Zn
   Zn96       1.0     0.411625     0.522623     0.750120    Uiso  ? Zn
   H457       1.0     0.500574     0.591851     0.877337    Uiso  ? H
   H458       1.0     0.476252     0.580314     0.868084    Uiso  ? H
   H459       1.0     0.519891     0.427515     0.130024    Uiso  ? H
   H460       1.0     0.514562     0.410011     0.108981    Uiso  ? H
   H461       1.0     0.552291     0.504275     0.170006    Uiso  ? H
   H462       1.0     0.530199     0.496665     0.185321    Uiso  ? H
   H463       1.0     0.589369     0.484086     0.892136    Uiso  ? H
   H464       1.0     0.578097     0.462106     0.880563    Uiso  ? H
   H465       1.0     0.468704     0.523333     0.822450    Uiso  ? H
   H466       1.0     0.446911     0.514308     0.834593    Uiso  ? H
   H467       1.0     0.440851     0.444790     0.878044    Uiso  ? H
   H468       1.0     0.451182     0.426475     0.895645    Uiso  ? H
   H469       1.0     0.546486     0.447512     0.837445    Uiso  ? H
   H470       1.0     0.534559     0.468393     0.824584    Uiso  ? H
   H471       1.0     0.427068     0.542995     0.899915    Uiso  ? H
   H472       1.0     0.414731     0.528950     0.880195    Uiso  ? H
   H473       1.0     0.455274     0.453714     0.147768    Uiso  ? H
   H474       1.0     0.444984     0.479551     0.152336    Uiso  ? H
   H475       1.0     0.483070     0.545451     0.167729    Uiso  ? H
   H476       1.0     0.498666     0.568141     0.162874    Uiso  ? H
   H477       1.0     0.560115     0.550277     0.845687    Uiso  ? H
   H478       1.0     0.557199     0.533150     0.824817    Uiso  ? H
   H479       1.0     0.550488     0.579633     0.114186    Uiso  ? H
   H480       1.0     0.564954     0.562847     0.131514    Uiso  ? H
   C769       1.0     0.518121     0.293842     0.162409    Uiso  ? C
   C770       1.0     0.524725     0.273827     0.170779    Uiso  ? C
   C771       1.0     0.549705     0.298126     0.176979    Uiso  ? C
   N1         1.0     0.533688     0.309151     0.166880    Uiso  ? N
   H481       1.0     0.502663     0.297288     0.155351    Uiso  ? H
   H482       1.0     0.515532     0.258838     0.170859    Uiso  ? H
   H483       1.0     0.563984     0.306209     0.183172    Uiso  ? H
   N2         1.0     0.544734     0.276694     0.179835    Uiso  ? N
   C772       1.0     0.557522     0.260359     0.191597    Uiso  ? C
   H484       1.0     0.549056     0.244604     0.191576    Uiso  ? H
   H485       1.0     0.573889     0.259022     0.183881    Uiso  ? H
   C773       1.0     0.559132     0.267406     0.215419    Uiso  ? C
   C774       1.0     0.579268     0.276018     0.223040    Uiso  ? C
   C775       1.0     0.542118     0.264492     0.230394    Uiso  ? C
   C776       1.0     0.581226     0.283231     0.244543    Uiso  ? C
   H486       1.0     0.592549     0.277977     0.211494    Uiso  ? H
   C777       1.0     0.544783     0.270856     0.252273    Uiso  ? C
   H487       1.0     0.526127     0.258589     0.224972    Uiso  ? H
   C778       1.0     0.564794     0.278856     0.260218    Uiso  ? C
   H488       1.0     0.596822     0.290583     0.249766    Uiso  ? H
   H489       1.0     0.530695     0.269961     0.263034    Uiso  ? H
   C779       1.0     0.566734     0.287579     0.282976    Uiso  ? C
   C780       1.0     0.578907     0.306901     0.287520    Uiso  ? C
   C781       1.0     0.558083     0.275286     0.300630    Uiso  ? C
   C782       1.0     0.583401     0.312810     0.309289    Uiso  ? C
   H490       1.0     0.586606     0.316316     0.274255    Uiso  ? H
   C783       1.0     0.562376     0.281820     0.322662    Uiso  ? C
   H491       1.0     0.549234     0.260023     0.297944    Uiso  ? H
   C784       1.0     0.575834     0.300532     0.326808    Uiso  ? C
   H492       1.0     0.593044     0.327615     0.312039    Uiso  ? H
   H493       1.0     0.554920     0.272565     0.335360    Uiso  ? H
   C785       1.0     0.578485     0.308877     0.350088    Uiso  ? C
   H494       1.0     0.589899     0.322958     0.350874    Uiso  ? H
   H495       1.0     0.561557     0.314231     0.355201    Uiso  ? H
   N3         1.0     0.586407     0.290590     0.363420    Uiso  ? N
   C786       1.0     0.606291     0.280313     0.362900    Uiso  ? C
   C787       1.0     0.574152     0.278581     0.377629    Uiso  ? C
   C788       1.0     0.605431     0.262502     0.376906    Uiso  ? C
   H496       1.0     0.619782     0.285574     0.352654    Uiso  ? H
   H497       1.0     0.556769     0.281508     0.381146    Uiso  ? H
   H498       1.0     0.618943     0.251189     0.379396    Uiso  ? H
   N4         1.0     0.585370     0.261345     0.386229    Uiso  ? N
   C789       1.0     0.559355     0.806692     0.312849    Uiso  ? C
   C790       1.0     0.559275     0.799548     0.291371    Uiso  ? C
   C791       1.0     0.526827     0.811087     0.299813    Uiso  ? C
   N5         1.0     0.539279     0.814455     0.317810    Uiso  ? N
   H499       1.0     0.572501     0.806725     0.325348    Uiso  ? H
   H500       1.0     0.572841     0.793482     0.282471    Uiso  ? H
   H501       1.0     0.509247     0.813610     0.299235    Uiso  ? H
   N6         1.0     0.539027     0.802423     0.283306    Uiso  ? N
   C792       1.0     0.530434     0.794467     0.262277    Uiso  ? C
   H502       1.0     0.519624     0.807411     0.255066    Uiso  ? H
   H503       1.0     0.544276     0.793184     0.250938    Uiso  ? H
   C793       1.0     0.518510     0.773152     0.265556    Uiso  ? C
   C794       1.0     0.530217     0.753111     0.268805    Uiso  ? C
   C795       1.0     0.495663     0.772814     0.267904    Uiso  ? C
   C796       1.0     0.519171     0.733531     0.273128    Uiso  ? C
   H504       1.0     0.547871     0.752414     0.265710    Uiso  ? H
   C797       1.0     0.484668     0.753517     0.273127    Uiso  ? C
   H505       1.0     0.486986     0.788553     0.269190    Uiso  ? H
   C798       1.0     0.496347     0.733579     0.276190    Uiso  ? C
   H506       1.0     0.529687     0.719062     0.274856    Uiso  ? H
   H507       1.0     0.467708     0.754550     0.277112    Uiso  ? H
   C799       1.0     0.484947     0.713850     0.284394    Uiso  ? C
   C800       1.0     0.495253     0.698828     0.298881    Uiso  ? C
   C801       1.0     0.463641     0.708958     0.277554    Uiso  ? C
   C802       1.0     0.483923     0.680521     0.307210    Uiso  ? C
   H508       1.0     0.512065     0.701721     0.304114    Uiso  ? H
   C803       1.0     0.452232     0.690574     0.285223    Uiso  ? C
   H509       1.0     0.455717     0.719988     0.265598    Uiso  ? H
   C804       1.0     0.462013     0.676407     0.300670    Uiso  ? C
   H510       1.0     0.492700     0.670210     0.318991    Uiso  ? H
   H511       1.0     0.435289     0.687852     0.279966    Uiso  ? H
   C805       1.0     0.448786     0.657996     0.310583    Uiso  ? C
   H512       1.0     0.458418     0.650801     0.324430    Uiso  ? H
   H513       1.0     0.433195     0.664781     0.317800    Uiso  ? H
   N7         1.0     0.443471     0.641875     0.293366    Uiso  ? N
   C806       1.0     0.423678     0.636383     0.286696    Uiso  ? C
   C807       1.0     0.457522     0.630947     0.280486    Uiso  ? C
   C808       1.0     0.425083     0.622283     0.269172    Uiso  ? C
   H514       1.0     0.408671     0.643405     0.292882    Uiso  ? H
   H515       1.0     0.475248     0.631685     0.282136    Uiso  ? H
   H516       1.0     0.412258     0.614593     0.259818    Uiso  ? H
   N8         1.0     0.446450     0.619308     0.264812    Uiso  ? N
   C809       1.0     0.380833     0.755712     0.627532    Uiso  ? C
   C810       1.0     0.379758     0.738339     0.641776    Uiso  ? C
   C811       1.0     0.411280     0.738060     0.626082    Uiso  ? C
   N9         1.0     0.401456     0.756198     0.618780    Uiso  ? N
   H517       1.0     0.368733     0.767089     0.623995    Uiso  ? H
   H518       1.0     0.366458     0.733579     0.651480    Uiso  ? H
   H519       1.0     0.427690     0.733464     0.620871    Uiso  ? H
   N10        1.0     0.398916     0.727286     0.640815    Uiso  ? N
   C812       1.0     0.405043     0.707286     0.652813    Uiso  ? C
   H520       1.0     0.389777     0.697610     0.656224    Uiso  ? H
   H521       1.0     0.417113     0.697743     0.643138    Uiso  ? H
   C813       1.0     0.415924     0.714189     0.673818    Uiso  ? C
   C814       1.0     0.438137     0.721322     0.673492    Uiso  ? C
   C815       1.0     0.403860     0.715326     0.692631    Uiso  ? C
   C816       1.0     0.448171     0.728842     0.692873    Uiso  ? C
   H522       1.0     0.447948     0.721109     0.658419    Uiso  ? H
   C817       1.0     0.413715     0.723691     0.711956    Uiso  ? C
   H523       1.0     0.386574     0.709818     0.692950    Uiso  ? H
   C818       1.0     0.436024     0.729770     0.712288    Uiso  ? C
   H524       1.0     0.465216     0.731981     0.692399    Uiso  ? H
   H525       1.0     0.403760     0.724364     0.726512    Uiso  ? H
   C819       1.0     0.447231     0.736390     0.732798    Uiso  ? C
   C820       1.0     0.435750     0.748297     0.749577    Uiso  ? C
   C821       1.0     0.467606     0.727826     0.737576    Uiso  ? C
   C822       1.0     0.445906     0.753784     0.769474    Uiso  ? C
   H526       1.0     0.418675     0.752921     0.747593    Uiso  ? H
   C823       1.0     0.477469     0.732670     0.757455    Uiso  ? C
   H527       1.0     0.477222     0.717763     0.725902    Uiso  ? H
   C824       1.0     0.467163     0.745790     0.773704    Uiso  ? C
   H528       1.0     0.437144     0.762160     0.782407    Uiso  ? H
   H529       1.0     0.494114     0.726454     0.760311    Uiso  ? H
   C825       1.0     0.478180     0.748376     0.795218    Uiso  ? C
   H530       1.0     0.496219     0.748922     0.793020    Uiso  ? H
   H531       1.0     0.472880     0.765007     0.801253    Uiso  ? H
   N11        1.0     0.471646     0.731144     0.809915    Uiso  ? N
   C826       1.0     0.457268     0.733239     0.826586    Uiso  ? C
   C827       1.0     0.478237     0.710049     0.810161    Uiso  ? C
   C828       1.0     0.456163     0.713582     0.837499    Uiso  ? C
   H532       1.0     0.446886     0.747216     0.830166    Uiso  ? H
   H533       1.0     0.491352     0.703519     0.800477    Uiso  ? H
   H534       1.0     0.445080     0.708558     0.850882    Uiso  ? H
   N12        1.0     0.468758     0.698601     0.826414    Uiso  ? N
   C829       1.0     0.577393     0.379598     0.724666    Uiso  ? C
   C830       1.0     0.573560     0.367223     0.705690    Uiso  ? C
   C831       1.0     0.546502     0.389327     0.710773    Uiso  ? C
   N13        1.0     0.560184     0.393445     0.727505    Uiso  ? N
   H535       1.0     0.591271     0.377516     0.735763    Uiso  ? H
   H536       1.0     0.583629     0.353589     0.699914    Uiso  ? H
   H537       1.0     0.530898     0.397531     0.709884    Uiso  ? H
   N14        1.0     0.554142     0.373614     0.697184    Uiso  ? N
   C832       1.0     0.541609     0.364417     0.678808    Uiso  ? C
   H538       1.0     0.529751     0.376692     0.673236    Uiso  ? H
   H539       1.0     0.552975     0.360197     0.665558    Uiso  ? H
   C833       1.0     0.528988     0.344594     0.686469    Uiso  ? C
   C834       1.0     0.536329     0.323485     0.681506    Uiso  ? C
   C835       1.0     0.509569     0.346662     0.698633    Uiso  ? C
   C836       1.0     0.525693     0.304547     0.689264    Uiso  ? C
   H540       1.0     0.550033     0.321076     0.672005    Uiso  ? H
   C837       1.0     0.498162     0.328093     0.705984    Uiso  ? C
   H541       1.0     0.502709     0.362760     0.702170    Uiso  ? H
   C838       1.0     0.506717     0.306676     0.702461    Uiso  ? C
   H542       1.0     0.532465     0.288403     0.685260    Uiso  ? H
   H543       1.0     0.482943     0.330739     0.714767    Uiso  ? H
   C839       1.0     0.494864     0.287636     0.710901    Uiso  ? C
   C840       1.0     0.505953     0.268509     0.718282    Uiso  ? C
   C841       1.0     0.471546     0.287672     0.711644    Uiso  ? C
   C842       1.0     0.494728     0.250455     0.726962    Uiso  ? C
   H544       1.0     0.523483     0.268081     0.717702    Uiso  ? H
   C843       1.0     0.460297     0.269000     0.719325    Uiso  ? C
   H545       1.0     0.462026     0.301715     0.704820    Uiso  ? H
   C844       1.0     0.471690     0.250209     0.726889    Uiso  ? C
   H546       1.0     0.504364     0.236592     0.732526    Uiso  ? H
   H547       1.0     0.442727     0.268959     0.718245    Uiso  ? H
   C845       1.0     0.458774     0.229973     0.733221    Uiso  ? C
   H548       1.0     0.469823     0.219778     0.742915    Uiso  ? H
   H549       1.0     0.444029     0.234322     0.742707    Uiso  ? H
   N15        1.0     0.452032     0.218564     0.713395    Uiso  ? N
   C846       1.0     0.431423     0.214354     0.707660    Uiso  ? C
   C847       1.0     0.464658     0.211251     0.697028    Uiso  ? C
   C848       1.0     0.431571     0.204450     0.687047    Uiso  ? C
   H550       1.0     0.417597     0.217858     0.717566    Uiso  ? H
   H551       1.0     0.482535     0.211517     0.696782    Uiso  ? H
   H552       1.0     0.417619     0.199382     0.677025    Uiso  ? H
   N16        1.0     0.452916     0.203103     0.680439    Uiso  ? N
   C849       1.0     0.670047     0.220484     0.600295    Uiso  ? C
   C850       1.0     0.680409     0.240471     0.603356    Uiso  ? C
   C851       1.0     0.649578     0.245324     0.586658    Uiso  ? C
   N17        1.0     0.650532     0.223793     0.589842    Uiso  ? N
   H553       1.0     0.675396     0.204743     0.605506    Uiso  ? H
   H554       1.0     0.697322     0.242692     0.610131    Uiso  ? H
   H555       1.0     0.635996     0.253768     0.579474    Uiso  ? H
   N18        1.0     0.667673     0.255899     0.594063    Uiso  ? N
   C852       1.0     0.672137     0.279760     0.593534    Uiso  ? C
   H556       1.0     0.657701     0.288726     0.599279    Uiso  ? H
   H557       1.0     0.685930     0.282809     0.604751    Uiso  ? H
   C853       1.0     0.677570     0.286347     0.570404    Uiso  ? C
   C854       1.0     0.699262     0.284273     0.562920    Uiso  ? C
   C855       1.0     0.661547     0.295619     0.556524    Uiso  ? C
   C856       1.0     0.704201     0.288701     0.541326    Uiso  ? C
   H558       1.0     0.710931     0.276459     0.574688    Uiso  ? H
   C857       1.0     0.666486     0.300645     0.534707    Uiso  ? C
   H559       1.0     0.644104     0.297087     0.560895    Uiso  ? H
   C858       1.0     0.687983     0.297632     0.527179    Uiso  ? C
   H560       1.0     0.720407     0.287018     0.535529    Uiso  ? H
   H561       1.0     0.653816     0.307631     0.524395    Uiso  ? H
   C859       1.0     0.694690     0.304904     0.504981    Uiso  ? C
   C860       1.0     0.704698     0.290120     0.490467    Uiso  ? C
   C861       1.0     0.689760     0.326526     0.497538    Uiso  ? C
   C862       1.0     0.710887     0.297114     0.469299    Uiso  ? C
   H562       1.0     0.708021     0.273281     0.495633    Uiso  ? H
   C863       1.0     0.693140     0.332323     0.475588    Uiso  ? C
   H563       1.0     0.679510     0.337212     0.506822    Uiso  ? H
   C864       1.0     0.704117     0.317422     0.461864    Uiso  ? C
   H564       1.0     0.719316     0.284527     0.459779    Uiso  ? H
   H565       1.0     0.687573     0.348014     0.468846    Uiso  ? H
   C865       1.0     0.709711     0.323757     0.438660    Uiso  ? C
   H566       1.0     0.705287     0.311167     0.426595    Uiso  ? H
   H567       1.0     0.701339     0.339334     0.433872    Uiso  ? H
   N19        1.0     0.734011     0.327828     0.437620    Uiso  ? N
   C866       1.0     0.749332     0.313671     0.430269    Uiso  ? C
   C867       1.0     0.745584     0.345638     0.444688    Uiso  ? C
   C868       1.0     0.769963     0.322724     0.433409    Uiso  ? C
   H568       1.0     0.745172     0.297437     0.423963    Uiso  ? H
   H569       1.0     0.737843     0.359779     0.451211    Uiso  ? H
   H570       1.0     0.785568     0.315291     0.430497    Uiso  ? H
   N20        1.0     0.767405     0.342730     0.442304    Uiso  ? N
   C869       1.0     0.566752     0.697039     0.507742    Uiso  ? C
   C870       1.0     0.574323     0.677947     0.498611    Uiso  ? C
   C871       1.0     0.581644     0.704051     0.477036    Uiso  ? C
   N21        1.0     0.570347     0.713334     0.493803    Uiso  ? N
   H571       1.0     0.558160     0.699584     0.522882    Uiso  ? H
   H572       1.0     0.573801     0.661463     0.506771    Uiso  ? H
   H573       1.0     0.587475     0.713329     0.463189    Uiso  ? H
   N22        1.0     0.583677     0.682393     0.479352    Uiso  ? N
   C872       1.0     0.596925     0.666810     0.466104    Uiso  ? C
   H574       1.0     0.595655     0.649721     0.472907    Uiso  ? H
   H575       1.0     0.590468     0.667847     0.449496    Uiso  ? H
   C873       1.0     0.620669     0.672389     0.466413    Uiso  ? C
   C874       1.0     0.632042     0.679139     0.447702    Uiso  ? C
   C875       1.0     0.631839     0.671967     0.487005    Uiso  ? C
   C876       1.0     0.653949     0.685051     0.449066    Uiso  ? C
   H576       1.0     0.623961     0.679706     0.432187    Uiso  ? H
   C877       1.0     0.653872     0.676677     0.488093    Uiso  ? C
   H577       1.0     0.622423     0.668167     0.502001    Uiso  ? H
   C878       1.0     0.665533     0.683563     0.469023    Uiso  ? C
   H578       1.0     0.662294     0.690373     0.434870    Uiso  ? H
   H579       1.0     0.661465     0.678024     0.504296    Uiso  ? H
   C879       1.0     0.689422     0.689267     0.470707    Uiso  ? C
   C880       1.0     0.697606     0.708144     0.460343    Uiso  ? C
   C881       1.0     0.703679     0.675807     0.482352    Uiso  ? C
   C882       1.0     0.720000     0.712435     0.460987    Uiso  ? C
   H580       1.0     0.686431     0.717986     0.450088    Uiso  ? H
   C883       1.0     0.726040     0.680557     0.483617    Uiso  ? C
   H581       1.0     0.697550     0.661381     0.490886    Uiso  ? H
   C884       1.0     0.734700     0.699162     0.472277    Uiso  ? C
   H582       1.0     0.726058     0.726843     0.452389    Uiso  ? H
   H583       1.0     0.736592     0.668853     0.493198    Uiso  ? H
   C885       1.0     0.758950     0.703634     0.473283    Uiso  ? C
   H584       1.0     0.761580     0.720031     0.466024    Uiso  ? H
   H585       1.0     0.764011     0.703732     0.490613    Uiso  ? H
   N23        1.0     0.771752     0.687527     0.460435    Uiso  ? N
   C886       1.0     0.773680     0.688118     0.438512    Uiso  ? C
   C887       1.0     0.781686     0.669244     0.467694    Uiso  ? C
   C888       1.0     0.786460     0.670555     0.432758    Uiso  ? C
   H586       1.0     0.767492     0.700720     0.427973    Uiso  ? H
   H587       1.0     0.781987     0.664275     0.484478    Uiso  ? H
   H588       1.0     0.790836     0.665704     0.416510    Uiso  ? H
   N24        1.0     0.791977     0.659174     0.451186    Uiso  ? N
   C889       1.0     0.214489     0.315283     0.592801    Uiso  ? C
   C890       1.0     0.225735     0.295750     0.591936    Uiso  ? C
   C891       1.0     0.224795     0.309727     0.560024    Uiso  ? C
   N25        1.0     0.213234     0.323943     0.572633    Uiso  ? N
   H589       1.0     0.207461     0.322307     0.607539    Uiso  ? H
   H590       1.0     0.227330     0.283621     0.605178    Uiso  ? H
   H591       1.0     0.226889     0.311297     0.542226    Uiso  ? H
   N26        1.0     0.231918     0.292045     0.571698    Uiso  ? N
   C892       1.0     0.243937     0.273095     0.563110    Uiso  ? C
   H592       1.0     0.247854     0.261580     0.576798    Uiso  ? H
   H593       1.0     0.233132     0.264363     0.551980    Uiso  ? H
   C893       1.0     0.264869     0.281206     0.551693    Uiso  ? C
   C894       1.0     0.264501     0.285766     0.529060    Uiso  ? C
   C895       1.0     0.284134     0.285910     0.563274    Uiso  ? C
   C896       1.0     0.282227     0.296489     0.518818    Uiso  ? C
   H594       1.0     0.250029     0.281669     0.519202    Uiso  ? H
   C897       1.0     0.302332     0.295706     0.553249    Uiso  ? C
   H595       1.0     0.283771     0.283874     0.581415    Uiso  ? H
   C898       1.0     0.300890     0.301962     0.530510    Uiso  ? C
   H596       1.0     0.281617     0.300778     0.501385    Uiso  ? H
   H597       1.0     0.317256     0.297675     0.562638    Uiso  ? H
   C899       1.0     0.319745     0.313517     0.519947    Uiso  ? C
   C900       1.0     0.330117     0.330651     0.531129    Uiso  ? C
   C901       1.0     0.326753     0.309052     0.498145    Uiso  ? C
   C902       1.0     0.347411     0.342025     0.521317    Uiso  ? C
   H598       1.0     0.324795     0.334515     0.547530    Uiso  ? H
   C903       1.0     0.344287     0.320410     0.488607    Uiso  ? C
   H599       1.0     0.319077     0.296553     0.488287    Uiso  ? H
   C904       1.0     0.354762     0.337619     0.500155    Uiso  ? C
   H600       1.0     0.355361     0.353635     0.532174    Uiso  ? H
   H601       1.0     0.349483     0.316958     0.471796    Uiso  ? H
   C905       1.0     0.375799     0.347558     0.490233    Uiso  ? C
   H602       1.0     0.375472     0.348391     0.472121    Uiso  ? H
   H603       1.0     0.377697     0.364371     0.497626    Uiso  ? H
   N27        1.0     0.394171     0.334488     0.497589    Uiso  ? N
   C906       1.0     0.409511     0.339616     0.512105    Uiso  ? C
   C907       1.0     0.398995     0.313394     0.491573    Uiso  ? C
   C908       1.0     0.423194     0.321910     0.515303    Uiso  ? C
   H604       1.0     0.409890     0.355130     0.520475    Uiso  ? H
   H605       1.0     0.390699     0.303008     0.479649    Uiso  ? H
   H606       1.0     0.437323     0.320656     0.526969    Uiso  ? H
   N28        1.0     0.415764     0.304875     0.503018    Uiso  ? N
   C909       1.0     0.270330     0.634909     0.572125    Uiso  ? C
   C910       1.0     0.278672     0.656084     0.573869    Uiso  ? C
   C911       1.0     0.244459     0.658017     0.566423    Uiso  ? C
   N29        1.0     0.249129     0.636489     0.566858    Uiso  ? N
   H607       1.0     0.279508     0.620769     0.574286    Uiso  ? H
   H608       1.0     0.295223     0.660577     0.577935    Uiso  ? H
   H609       1.0     0.228372     0.664014     0.562063    Uiso  ? H
   N30        1.0     0.262372     0.670192     0.569696    Uiso  ? N
   C912       1.0     0.264103     0.694096     0.566141    Uiso  ? C
   H610       1.0     0.247248     0.701801     0.568083    Uiso  ? H
   H611       1.0     0.273959     0.702201     0.579410    Uiso  ? H
   C913       1.0     0.273195     0.698749     0.543589    Uiso  ? C
   C914       1.0     0.294588     0.707719     0.541582    Uiso  ? C
   C915       1.0     0.261451     0.692699     0.524567    Uiso  ? C
   C916       1.0     0.303177     0.711326     0.521133    Uiso  ? C
   H612       1.0     0.303817     0.711367     0.556381    Uiso  ? H
   C917       1.0     0.270791     0.696485     0.503809    Uiso  ? C
   H613       1.0     0.244620     0.685959     0.525031    Uiso  ? H
   C918       1.0     0.291938     0.705217     0.501833    Uiso  ? C
   H614       1.0     0.320605     0.717453     0.520645    Uiso  ? H
   H615       1.0     0.260908     0.693469     0.489439    Uiso  ? H
   C919       1.0     0.301320     0.709931     0.479873    Uiso  ? C
   C920       1.0     0.323757     0.707718     0.476540    Uiso  ? C
   C921       1.0     0.287905     0.720037     0.464153    Uiso  ? C
   C922       1.0     0.332360     0.714217     0.456297    Uiso  ? C
   H616       1.0     0.335438     0.700718     0.487689    Uiso  ? H
   C923       1.0     0.296878     0.725104     0.443261    Uiso  ? C
   H617       1.0     0.270824     0.723048     0.467135    Uiso  ? H
   C924       1.0     0.319205     0.720771     0.439372    Uiso  ? C
   H618       1.0     0.349409     0.711375     0.453847    Uiso  ? H
   H619       1.0     0.285837     0.732378     0.431027    Uiso  ? H
   C925       1.0     0.329142     0.725946     0.417432    Uiso  ? C
   H620       1.0     0.345066     0.716906     0.414776    Uiso  ? H
   H621       1.0     0.317651     0.720881     0.404294    Uiso  ? H
   N31        1.0     0.333364     0.749605     0.414618    Uiso  ? N
   C926       1.0     0.319307     0.764266     0.405377    Uiso  ? C
   C927       1.0     0.350707     0.761680     0.421339    Uiso  ? C
   C928       1.0     0.328973     0.784712     0.405669    Uiso  ? C
   H622       1.0     0.304977     0.760653     0.396451    Uiso  ? H
   H623       1.0     0.364777     0.755047     0.429553    Uiso  ? H
   H624       1.0     0.321968     0.800636     0.400573    Uiso  ? H
   N32        1.0     0.348747     0.782366     0.415880    Uiso  ? N
   C929       1.0     0.610910     0.470072     0.292675    Uiso  ? C
   C930       1.0     0.623164     0.476824     0.311302    Uiso  ? C
   C931       1.0     0.617324     0.505215     0.290741    Uiso  ? C
   N33        1.0     0.608051     0.488065     0.279716    Uiso  ? N
   H625       1.0     0.606512     0.453470     0.288683    Uiso  ? H
   H626       1.0     0.629469     0.466396     0.324030    Uiso  ? H
   H627       1.0     0.617485     0.521946     0.284972    Uiso  ? H
   N34        1.0     0.627293     0.498619     0.309709    Uiso  ? N
   C932       1.0     0.642981     0.511327     0.322233    Uiso  ? C
   H628       1.0     0.638750     0.529288     0.321892    Uiso  ? H
   H629       1.0     0.642310     0.505222     0.339140    Uiso  ? H
   C933       1.0     0.665543     0.506861     0.312997    Uiso  ? C
   C934       1.0     0.678057     0.488923     0.320906    Uiso  ? C
   C935       1.0     0.674051     0.519597     0.295460    Uiso  ? C
   C936       1.0     0.698474     0.483848     0.311323    Uiso  ? C
   H630       1.0     0.670931     0.479031     0.333685    Uiso  ? H
   C937       1.0     0.695125     0.515473     0.287354    Uiso  ? C
   H631       1.0     0.664033     0.531660     0.287095    Uiso  ? H
   C938       1.0     0.707909     0.497441     0.294956    Uiso  ? C
   H632       1.0     0.706975     0.469888     0.317990    Uiso  ? H
   H633       1.0     0.700210     0.525825     0.274029    Uiso  ? H
   C939       1.0     0.730431     0.493081     0.285845    Uiso  ? C
   C940       1.0     0.738353     0.471644     0.281467    Uiso  ? C
   C941       1.0     0.744214     0.511265     0.281195    Uiso  ? C
   C942       1.0     0.759201     0.468948     0.271166    Uiso  ? C
   H634       1.0     0.727331     0.457528     0.282734    Uiso  ? H
   C943       1.0     0.764992     0.508375     0.271868    Uiso  ? C
   H635       1.0     0.737685     0.528155     0.283872    Uiso  ? H
   C944       1.0     0.772771     0.487432     0.267881    Uiso  ? C
   H636       1.0     0.765865     0.453017     0.267279    Uiso  ? H
   H637       1.0     0.774970     0.522870     0.268785    Uiso  ? H
   C945       1.0     0.795923     0.484573     0.259078    Uiso  ? C
   H638       1.0     0.799646     0.467094     0.257171    Uiso  ? H
   H639       1.0     0.797992     0.493606     0.242650    Uiso  ? H
   N35        1.0     0.811770     0.493554     0.274628    Uiso  ? N
   C946       1.0     0.825085     0.510992     0.271422    Uiso  ? C
   C947       1.0     0.816683     0.485807     0.294677    Uiso  ? C
   C948       1.0     0.837254     0.513865     0.290869    Uiso  ? C
   H640       1.0     0.826974     0.520168     0.256539    Uiso  ? H
   H641       1.0     0.808236     0.472338     0.302506    Uiso  ? H
   H642       1.0     0.848743     0.526936     0.294877    Uiso  ? H
   N36        1.0     0.831063     0.498383     0.305372    Uiso  ? N
   C949       1.0     0.376887     0.395079     0.239115    Uiso  ? C
   C950       1.0     0.359880     0.387815     0.252728    Uiso  ? C
   C951       1.0     0.351595     0.419098     0.238392    Uiso  ? C
   N37        1.0     0.371287     0.414672     0.230079    Uiso  ? N
   H643       1.0     0.391347     0.386212     0.235123    Uiso  ? H
   H644       1.0     0.358961     0.373100     0.262579    Uiso  ? H
   H645       1.0     0.342885     0.433550     0.234073    Uiso  ? H
   N38        1.0     0.344915     0.403452     0.252636    Uiso  ? N
   C952       1.0     0.323522     0.402283     0.263695    Uiso  ? C
   H646       1.0     0.311774     0.414356     0.255156    Uiso  ? H
   H647       1.0     0.315937     0.385352     0.263224    Uiso  ? H
   C953       1.0     0.326339     0.409013     0.286870    Uiso  ? C
   C954       1.0     0.324861     0.431388     0.293036    Uiso  ? C
   C955       1.0     0.331114     0.393509     0.303380    Uiso  ? C
   C956       1.0     0.329775     0.438422     0.314477    Uiso  ? C
   H648       1.0     0.321614     0.444051     0.280630    Uiso  ? H
   C957       1.0     0.334709     0.400364     0.324831    Uiso  ? C
   H649       1.0     0.331659     0.376097     0.299432    Uiso  ? H
   C958       1.0     0.335646     0.423101     0.330874    Uiso  ? C
   H650       1.0     0.330968     0.455956     0.317504    Uiso  ? H
   H651       1.0     0.338678     0.388144     0.336855    Uiso  ? H
   C959       1.0     0.342134     0.430118     0.352928    Uiso  ? C
   C960       1.0     0.334837     0.418368     0.371493    Uiso  ? C
   C961       1.0     0.354714     0.448918     0.355934    Uiso  ? C
   C962       1.0     0.339026     0.426344     0.392997    Uiso  ? C
   H652       1.0     0.325384     0.403415     0.369865    Uiso  ? H
   C963       1.0     0.358861     0.457327     0.377088    Uiso  ? C
   H653       1.0     0.360249     0.458898     0.342401    Uiso  ? H
   C964       1.0     0.351913     0.445323     0.395380    Uiso  ? C
   H654       1.0     0.332871     0.417665     0.407079    Uiso  ? H
   H655       1.0     0.366792     0.472868     0.378791    Uiso  ? H
   C965       1.0     0.356239     0.453873     0.417854    Uiso  ? C
   H656       1.0     0.359190     0.439689     0.428807    Uiso  ? H
   H657       1.0     0.371127     0.465456     0.417370    Uiso  ? H
   N39        1.0     0.337353     0.466334     0.425443    Uiso  ? N
   C966       1.0     0.333198     0.487894     0.423374    Uiso  ? C
   C967       1.0     0.319185     0.457792     0.435890    Uiso  ? C
   C968       1.0     0.313173     0.492254     0.433283    Uiso  ? C
   H658       1.0     0.344651     0.499375     0.415854    Uiso  ? H
   H659       1.0     0.315769     0.440369     0.439118    Uiso  ? H
   H660       1.0     0.305184     0.507501     0.435171    Uiso  ? H
   N40        1.0     0.304881     0.473304     0.440990    Uiso  ? N
   C969       1.0     0.182606     0.500942     0.720817    Uiso  ? C
   C970       1.0     0.193971     0.495290     0.739315    Uiso  ? C
   C971       1.0     0.201561     0.472784     0.712931    Uiso  ? C
   N41        1.0     0.186855     0.487066     0.704385    Uiso  ? N
   H661       1.0     0.171574     0.514663     0.719091    Uiso  ? H
   H662       1.0     0.194368     0.503935     0.754767    Uiso  ? H
   H663       1.0     0.208607     0.459213     0.703398    Uiso  ? H
   N42        1.0     0.206091     0.477652     0.734306    Uiso  ? N
   C972       1.0     0.222603     0.466644     0.747528    Uiso  ? C
   H664       1.0     0.221333     0.473160     0.764668    Uiso  ? H
   H665       1.0     0.220266     0.448534     0.748077    Uiso  ? H
   C973       1.0     0.245089     0.471950     0.738949    Uiso  ? C
   C974       1.0     0.254904     0.492492     0.743972    Uiso  ? C
   C975       1.0     0.255948     0.457788     0.724458    Uiso  ? C
   C976       1.0     0.274547     0.499018     0.734055    Uiso  ? C
   H666       1.0     0.246470     0.503487     0.754437    Uiso  ? H
   C977       1.0     0.275328     0.464334     0.714125    Uiso  ? C
   H667       1.0     0.249283     0.441492     0.720923    Uiso  ? H
   C978       1.0     0.284465     0.485074     0.718442    Uiso  ? C
   H668       1.0     0.281881     0.515176     0.737634    Uiso  ? H
   H669       1.0     0.282729     0.452352     0.702028    Uiso  ? H
   C979       1.0     0.303217     0.492566     0.705308    Uiso  ? C
   C980       1.0     0.321748     0.479362     0.702305    Uiso  ? C
   C981       1.0     0.303771     0.514500     0.697620    Uiso  ? C
   C982       1.0     0.340030     0.487409     0.691198    Uiso  ? C
   H670       1.0     0.321973     0.462711     0.708422    Uiso  ? H
   C983       1.0     0.322825     0.523069     0.687670    Uiso  ? C
   H671       1.0     0.289728     0.524856     0.699399    Uiso  ? H
   C984       1.0     0.341154     0.509530     0.684331    Uiso  ? C
   H672       1.0     0.354109     0.476796     0.688163    Uiso  ? H
   H673       1.0     0.323571     0.540321     0.684083    Uiso  ? H
   C985       1.0     0.361947     0.518514     0.675645    Uiso  ? C
   H674       1.0     0.372386     0.505404     0.668154    Uiso  ? H
   H675       1.0     0.357661     0.530994     0.663061    Uiso  ? H
   N43        1.0     0.374119     0.528200     0.694091    Uiso  ? N
   C986       1.0     0.376073     0.549778     0.698579    Uiso  ? C
   C987       1.0     0.386307     0.517392     0.708819    Uiso  ? C
   C988       1.0     0.389206     0.551326     0.717017    Uiso  ? C
   H676       1.0     0.368084     0.562788     0.688971    Uiso  ? H
   H677       1.0     0.388702     0.499836     0.709408    Uiso  ? H
   H678       1.0     0.393681     0.566994     0.725468    Uiso  ? H
   N44        1.0     0.395093     0.530866     0.723370    Uiso  ? N
   C989       1.0     0.647182     0.598708     0.749784    Uiso  ? C
   C990       1.0     0.665119     0.597065     0.736055    Uiso  ? C
   C991       1.0     0.668071     0.573382     0.762287    Uiso  ? C
   N45        1.0     0.648017     0.582870     0.765221    Uiso  ? N
   H679       1.0     0.633179     0.609296     0.746545    Uiso  ? H
   H680       1.0     0.668565     0.606452     0.721780    Uiso  ? H
   H681       1.0     0.673494     0.559840     0.771548    Uiso  ? H
   N46        1.0     0.678443     0.581732     0.744335    Uiso  ? N
   C992       1.0     0.699201     0.574297     0.734680    Uiso  ? C
   H682       1.0     0.709619     0.588681     0.730662    Uiso  ? H
   H683       1.0     0.708293     0.563103     0.746363    Uiso  ? H
   C993       1.0     0.694095     0.561200     0.713961    Uiso  ? C
   C994       1.0     0.688472     0.539300     0.714934    Uiso  ? C
   C995       1.0     0.696349     0.571388     0.692864    Uiso  ? C
   C996       1.0     0.683205     0.527891     0.695602    Uiso  ? C
   H684       1.0     0.687738     0.531355     0.731318    Uiso  ? H
   C997       1.0     0.690753     0.559763     0.674050    Uiso  ? C
   H685       1.0     0.701812     0.588019     0.690501    Uiso  ? H
   C998       1.0     0.683817     0.537743     0.675047    Uiso  ? C
   H686       1.0     0.677785     0.511242     0.697663    Uiso  ? H
   H687       1.0     0.692956     0.568536     0.658903    Uiso  ? H
   C999       1.0     0.676157     0.527177     0.655008    Uiso  ? C
   C1000      1.0     0.663050     0.538187     0.640219    Uiso  ? C
   C1001      1.0     0.681894     0.505167     0.651357    Uiso  ? C
   C1002      1.0     0.657027     0.528060     0.620839    Uiso  ? C
   H688       1.0     0.657895     0.554998     0.643038    Uiso  ? H
   C1003      1.0     0.676625     0.495391     0.631221    Uiso  ? C
   H689       1.0     0.692333     0.496691     0.663516    Uiso  ? H
   C1004      1.0     0.662865     0.505840     0.616314    Uiso  ? C
   H690       1.0     0.647581     0.536760     0.609290    Uiso  ? H
   H691       1.0     0.682612     0.478949     0.627769    Uiso  ? H
   C1005      1.0     0.655890     0.495062     0.595124    Uiso  ? C
   H692       1.0     0.658062     0.477360     0.596672    Uiso  ? H
   H693       1.0     0.638341     0.498072     0.591518    Uiso  ? H
   N47        1.0     0.669158     0.502773     0.576913    Uiso  ? N
   C1006      1.0     0.662506     0.514343     0.559643    Uiso  ? C
   C1007      1.0     0.690618     0.498985     0.573920    Uiso  ? C
   C1008      1.0     0.680474     0.517111     0.545566    Uiso  ? C
   H694       1.0     0.645644     0.518176     0.555777    Uiso  ? H
   H695       1.0     0.700054     0.490014     0.584968    Uiso  ? H
   H696       1.0     0.680524     0.526357     0.530994    Uiso  ? H
   N48        1.0     0.698684     0.508346     0.555206    Uiso  ? N
   C1009      1.0     0.643457     0.660595     0.186733    Uiso  ? C
   C1010      1.0     0.656997     0.678545     0.187712    Uiso  ? C
   C1011      1.0     0.639724     0.680234     0.157579    Uiso  ? C
   N49        1.0     0.632588     0.661463     0.167220    Uiso  ? N
   H697       1.0     0.641729     0.646643     0.198701    Uiso  ? H
   H698       1.0     0.669031     0.681622     0.200147    Uiso  ? H
   H699       1.0     0.634003     0.685742     0.141720    Uiso  ? H
   N50        1.0     0.655243     0.690451     0.169298    Uiso  ? N
   C1012      1.0     0.666165     0.711726     0.164627    Uiso  ? C
   H700       1.0     0.654203     0.724774     0.168170    Uiso  ? H
   H701       1.0     0.680110     0.714348     0.176147    Uiso  ? H
   C1013      1.0     0.675043     0.712022     0.141484    Uiso  ? C
   C1014      1.0     0.691699     0.697433     0.136086    Uiso  ? C
   C1015      1.0     0.668447     0.727295     0.125482    Uiso  ? C
   C1016      1.0     0.700643     0.696363     0.114839    Uiso  ? C
   H702       1.0     0.695983     0.684454     0.147618    Uiso  ? H
   C1017      1.0     0.677611     0.726769     0.104132    Uiso  ? C
   H703       1.0     0.656896     0.739494     0.128660    Uiso  ? H
   C1018      1.0     0.693736     0.710458     0.898973    Uiso  ? C
   H704       1.0     0.712935     0.684280     0.111849    Uiso  ? H
   H705       1.0     0.671824     0.736939     0.892198    Uiso  ? H
   C1019      1.0     0.703876     0.710092     0.876836    Uiso  ? C
   C1020      1.0     0.726513     0.707839     0.874370    Uiso  ? C
   C1021      1.0     0.690219     0.709848     0.857992    Uiso  ? C
   C1022      1.0     0.735550     0.707134     0.853660    Uiso  ? C
   H706       1.0     0.736952     0.708801     0.888411    Uiso  ? H
   C1023      1.0     0.699431     0.708446     0.836854    Uiso  ? C
   H707       1.0     0.673271     0.712801     0.860080    Uiso  ? H
   C1024      1.0     0.722114     0.707188     0.834751    Uiso  ? C
   H708       1.0     0.754018     0.706846     0.852030    Uiso  ? H
   H709       1.0     0.688857     0.710535     0.822220    Uiso  ? H
   C1025      1.0     0.733383     0.707153     0.812111    Uiso  ? C
   H710       1.0     0.747893     0.695797     0.811313    Uiso  ? H
   H711       1.0     0.722145     0.700657     0.799731    Uiso  ? H
   N51        1.0     0.740199     0.729843     0.807016    Uiso  ? N
   C1026      1.0     0.729593     0.745040     0.795318    Uiso  ? C
   C1027      1.0     0.757843     0.740229     0.815177    Uiso  ? C
   C1028      1.0     0.740970     0.764505     0.796369    Uiso  ? C
   H712       1.0     0.713768     0.743800     0.786976    Uiso  ? H
   H713       1.0     0.768177     0.733142     0.827497    Uiso  ? H
   H714       1.0     0.735150     0.779717     0.790535    Uiso  ? H
   N52        1.0     0.758647     0.761696     0.809674    Uiso  ? N
   C1029      1.0     0.716986     0.436545     0.893863    Uiso  ? C
   C1030      1.0     0.734448     0.424202     0.887203    Uiso  ? C
   C1031      1.0     0.704972     0.411132     0.872144    Uiso  ? C
   N53        1.0     0.698540     0.428055     0.884783    Uiso  ? N
   H715       1.0     0.717339     0.450869     0.106354    Uiso  ? H
   H716       1.0     0.751265     0.425932     0.892500    Uiso  ? H
   H717       1.0     0.693665     0.401039     0.863326    Uiso  ? H
   N54        1.0     0.726982     0.408723     0.873169    Uiso  ? N
   C1032      1.0     0.739173     0.390452     0.864936    Uiso  ? C
   H718       1.0     0.733457     0.387233     0.848183    Uiso  ? H
   H719       1.0     0.757278     0.394306     0.864051    Uiso  ? H
   C1033      1.0     0.734075     0.371318     0.879619    Uiso  ? C
   C1034      1.0     0.716745     0.356266     0.874167    Uiso  ? C
   C1035      1.0     0.746500     0.367064     0.898333    Uiso  ? C
   C1036      1.0     0.711625     0.339035     0.888168    Uiso  ? C
   H720       1.0     0.706416     0.359752     0.859432    Uiso  ? H
   C1037      1.0     0.742086     0.350672     0.112049    Uiso  ? C
   H721       1.0     0.758985     0.379784     0.101917    Uiso  ? H
   C1038      1.0     0.724150     0.336485     0.106959    Uiso  ? C
   H722       1.0     0.698269     0.327423     0.883057    Uiso  ? H
   H723       1.0     0.751612     0.348509     0.126396    Uiso  ? H
   C1039      1.0     0.718430     0.317488     0.121410    Uiso  ? C
   C1040      1.0     0.696448     0.312549     0.126101    Uiso  ? C
   C1041      1.0     0.734522     0.304771     0.131154    Uiso  ? C
   C1042      1.0     0.691282     0.295008     0.140237    Uiso  ? C
   H724       1.0     0.683459     0.322003     0.118293    Uiso  ? H
   C1043      1.0     0.729553     0.288298     0.145729    Uiso  ? C
   H725       1.0     0.752141     0.308032     0.128524    Uiso  ? H
   C1044      1.0     0.707687     0.283505     0.151138    Uiso  ? C
   H726       1.0     0.674354     0.290905     0.143329    Uiso  ? H
   H727       1.0     0.743243     0.278546     0.152496    Uiso  ? H
   C1045      1.0     0.702781     0.266665     0.168510    Uiso  ? C
   H728       1.0     0.715160     0.268237     0.181498    Uiso  ? H
   H729       1.0     0.686038     0.268658     0.174923    Uiso  ? H
   N55        1.0     0.705128     0.244397     0.158875    Uiso  ? N
   C1046      1.0     0.688887     0.233699     0.148505    Uiso  ? C
   C1047      1.0     0.722657     0.231123     0.159094    Uiso  ? C
   C1048      1.0     0.697651     0.214208     0.141164    Uiso  ? C
   H730       1.0     0.672995     0.240238     0.144993    Uiso  ? H
   H731       1.0     0.737953     0.235258     0.166699    Uiso  ? H
   H732       1.0     0.689003     0.202093     0.132846    Uiso  ? H
   N56        1.0     0.718417     0.211994     0.148861    Uiso  ? N
   C1049      1.0     0.260877     0.784138     0.802138    Uiso  ? C
   C1050      1.0     0.280793     0.773759     0.798119    Uiso  ? C
   C1051      1.0     0.275370     0.774993     0.832493    Uiso  ? C
   N57        1.0     0.257684     0.784705     0.824079    Uiso  ? N
   H733       1.0     0.251365     0.792217     0.789794    Uiso  ? H
   H734       1.0     0.288423     0.771270     0.782700    Uiso  ? H
   H735       1.0     0.278140     0.772998     0.850207    Uiso  ? H
   N58        1.0     0.289401     0.767782     0.817202    Uiso  ? N
   C1052      1.0     0.308710     0.753772     0.820599    Uiso  ? C
   H736       1.0     0.317902     0.752908     0.804765    Uiso  ? H
   H737       1.0     0.318800     0.761819     0.832851    Uiso  ? H
   C1053      1.0     0.301917     0.731420     0.828676    Uiso  ? C
   C1054      1.0     0.299927     0.727690     0.851504    Uiso  ? C
   C1055      1.0     0.298414     0.714224     0.814047    Uiso  ? C
   C1056      1.0     0.294739     0.706648     0.859125    Uiso  ? C
   H738       1.0     0.302359     0.740908     0.862832    Uiso  ? H
   C1057      1.0     0.292335     0.693384     0.821278    Uiso  ? C
   H739       1.0     0.299057     0.718659     0.795786    Uiso  ? H
   C1058      1.0     0.289972     0.689475     0.844092    Uiso  ? C
   H740       1.0     0.294048     0.703251     0.876710    Uiso  ? H
   H741       1.0     0.289194     0.680416     0.808886    Uiso  ? H
   C1059      1.0     0.283332     0.667360     0.852190    Uiso  ? C
   C1060      1.0     0.267647     0.665612     0.868974    Uiso  ? C
   C1061      1.0     0.290541     0.647736     0.841362    Uiso  ? C
   C1062      1.0     0.259705     0.644723     0.875471    Uiso  ? C
   H742       1.0     0.260918     0.679399     0.877440    Uiso  ? H
   C1063      1.0     0.282785     0.626800     0.848073    Uiso  ? C
   H743       1.0     0.302670     0.648650     0.828276    Uiso  ? H
   C1064      1.0     0.267596     0.625381     0.864983    Uiso  ? C
   H744       1.0     0.246961     0.643533     0.888421    Uiso  ? H
   H745       1.0     0.289345     0.611619     0.840876    Uiso  ? H
   C1065      1.0     0.260355     0.603650     0.873963    Uiso  ? C
   H746       1.0     0.243212     0.604869     0.881024    Uiso  ? H
   H747       1.0     0.259380     0.591811     0.860545    Uiso  ? H
   N59        1.0     0.276345     0.595953     0.889955    Uiso  ? N
   C1066      1.0     0.275997     0.599951     0.111366    Uiso  ? C
   C1067      1.0     0.296158     0.587573     0.885149    Uiso  ? C
   C1068      1.0     0.295224     0.592922     0.119677    Uiso  ? C
   H748       1.0     0.264497     0.609785     0.120207    Uiso  ? H
   H749       1.0     0.302191     0.585013     0.869003    Uiso  ? H
   H750       1.0     0.299221     0.591828     0.137022    Uiso  ? H
   N60        1.0     0.307980     0.585706     0.102870    Uiso  ? N
   C1069      1.0     0.249808     0.229256     0.190478    Uiso  ? C
   C1070      1.0     0.262997     0.247495     0.192566    Uiso  ? C
   C1071      1.0     0.234082     0.256044     0.174087    Uiso  ? C
   N61        1.0     0.232551     0.234378     0.177943    Uiso  ? N
   H751       1.0     0.254615     0.212864     0.195694    Uiso  ? H
   H752       1.0     0.277692     0.248304     0.202318    Uiso  ? H
   H753       1.0     0.221632     0.265902     0.165367    Uiso  ? H
   N62        1.0     0.252372     0.264702     0.183592    Uiso  ? N
   C1072      1.0     0.260204     0.287328     0.182288    Uiso  ? C
   H754       1.0     0.246047     0.298280     0.185732    Uiso  ? H
   H755       1.0     0.274008     0.290646     0.194676    Uiso  ? H
   C1073      1.0     0.269947     0.291679     0.160177    Uiso  ? C
   C1074      1.0     0.289811     0.282323     0.152951    Uiso  ? C
   C1075      1.0     0.258603     0.305938     0.146465    Uiso  ? C
   C1076      1.0     0.297574     0.286918     0.131439    Uiso  ? C
   H756       1.0     0.299469     0.270877     0.163424    Uiso  ? H
   C1077      1.0     0.265812     0.310235     0.125037    Uiso  ? C
   H757       1.0     0.243855     0.313381     0.152573    Uiso  ? H
   C1078      1.0     0.285937     0.301014     0.117947    Uiso  ? C
   H758       1.0     0.313137     0.281037     0.127131    Uiso  ? H
   H759       1.0     0.256434     0.321152     0.114549    Uiso  ? H
   C1079      1.0     0.294917     0.306598     0.897145    Uiso  ? C
   C1080      1.0     0.304159     0.290795     0.883300    Uiso  ? C
   C1081      1.0     0.295682     0.328476     0.890427    Uiso  ? C
   C1082      1.0     0.313186     0.296164     0.863352    Uiso  ? C
   H760       1.0     0.303489     0.274483     0.887431    Uiso  ? H
   C1083      1.0     0.304602     0.334290     0.870414    Uiso  ? C
   H761       1.0     0.291157     0.343141     0.100719    Uiso  ? H
   C1084      1.0     0.312908     0.317980     0.856044    Uiso  ? C
   H762       1.0     0.319233     0.283570     0.853382    Uiso  ? H
   H763       1.0     0.304987     0.351204     0.864893    Uiso  ? H
   C1085      1.0     0.320713     0.323720     0.833049    Uiso  ? C
   H764       1.0     0.317357     0.310313     0.821734    Uiso  ? H
   H765       1.0     0.312753     0.338482     0.827712    Uiso  ? H
   N63        1.0     0.344219     0.327559     0.833776    Uiso  ? N
   C1086      1.0     0.360290     0.313392     0.827421    Uiso  ? C
   C1087      1.0     0.354586     0.345776     0.840579    Uiso  ? C
   C1088      1.0     0.380406     0.323853     0.830463    Uiso  ? C
   H766       1.0     0.357792     0.296173     0.821813    Uiso  ? H
   H767       1.0     0.346198     0.360504     0.846153    Uiso  ? H
   H768       1.0     0.396112     0.317061     0.826681    Uiso  ? H
   N64        1.0     0.376911     0.344370     0.838658    Uiso  ? N
   C1089      1.0     0.607676     0.822548     0.678237    Uiso  ? C
   C1090      1.0     0.616659     0.825191     0.699149    Uiso  ? C
   C1091      1.0     0.593640     0.851167     0.692688    Uiso  ? C
   N65        1.0     0.593489     0.839081     0.674432    Uiso  ? N
   H769       1.0     0.611745     0.809182     0.667339    Uiso  ? H
   H770       1.0     0.630322     0.814685     0.706331    Uiso  ? H
   H771       1.0     0.583564     0.865442     0.694962    Uiso  ? H
   N66        1.0     0.607329     0.842856     0.708107    Uiso  ? N
   C1092      1.0     0.613327     0.851970     0.729482    Uiso  ? C
   H772       1.0     0.598277     0.859384     0.736869    Uiso  ? H
   H773       1.0     0.619675     0.839555     0.740740    Uiso  ? H
   C1093      1.0     0.630322     0.870089     0.726110    Uiso  ? C
   C1094      1.0     0.652912     0.865416     0.728010    Uiso  ? C
   C1095      1.0     0.623917     0.891694     0.720042    Uiso  ? C
   C1096      1.0     0.668219     0.882092     0.723621    Uiso  ? C
   H774       1.0     0.658057     0.849034     0.732265    Uiso  ? H
   C1097      1.0     0.640351     0.112677     0.715812    Uiso  ? C
   H775       1.0     0.607131     0.895967     0.718236    Uiso  ? H
   C1098      1.0     0.662368     0.107744     0.717182    Uiso  ? C
   H776       1.0     0.686058     0.878316     0.724088    Uiso  ? H
   H777       1.0     0.634388     0.128261     0.710693    Uiso  ? H
   C1099      1.0     0.678658     0.124151     0.709634    Uiso  ? C
   C1100      1.0     0.697024     0.117815     0.697318    Uiso  ? C
   C1101      1.0     0.676561     0.146037     0.715674    Uiso  ? C
   C1102      1.0     0.712812     0.132903     0.691173    Uiso  ? C
   H778       1.0     0.697560     0.895716     0.692591    Uiso  ? H
   C1103      1.0     0.691990     0.161439     0.708967    Uiso  ? C
   H779       1.0     0.663935     0.151614     0.726423    Uiso  ? H
   C1104      1.0     0.710885     0.155034     0.697619    Uiso  ? C
   H780       1.0     0.727284     0.127601     0.682525    Uiso  ? H
   H781       1.0     0.690890     0.177712     0.715550    Uiso  ? H
   C1105      1.0     0.728140     0.172351     0.693397    Uiso  ? C
   H782       1.0     0.739436     0.164925     0.681087    Uiso  ? H
   H783       1.0     0.720570     0.187903     0.685972    Uiso  ? H
   N67        1.0     0.739879     0.177428     0.713354    Uiso  ? N
   C1106      1.0     0.737180     0.195409     0.726072    Uiso  ? C
   C1107      1.0     0.752121     0.163978     0.725690    Uiso  ? C
   C1108      1.0     0.749389     0.192919     0.744648    Uiso  ? C
   H784       1.0     0.727374     0.208831     0.721506    Uiso  ? H
   H785       1.0     0.756308     0.146990     0.720774    Uiso  ? H
   H786       1.0     0.749793     0.204179     0.758641    Uiso  ? H
   N68        1.0     0.759008     0.173207     0.744264    Uiso  ? N
   C1109      1.0     0.287181     0.157543     0.553644    Uiso  ? C
   C1110      1.0     0.266969     0.157214     0.563665    Uiso  ? C
   C1111      1.0     0.286215     0.129865     0.575364    Uiso  ? C
   N69        1.0     0.299484     0.140408     0.561100    Uiso  ? N
   H787       1.0     0.292952     0.169845     0.542547    Uiso  ? H
   H788       1.0     0.253409     0.168824     0.562032    Uiso  ? H
   H789       1.0     0.290771     0.115008     0.583916    Uiso  ? H
   N70        1.0     0.266710     0.139734     0.577124    Uiso  ? N
   C1112      1.0     0.249268     0.134457     0.592721    Uiso  ? C
   H790       1.0     0.233633     0.141320     0.587212    Uiso  ? H
   H791       1.0     0.247122     0.116503     0.593664    Uiso  ? H
   C1113      1.0     0.254510     0.145477     0.614558    Uiso  ? C
   C1114      1.0     0.267388     0.133914     0.630153    Uiso  ? C
   C1115      1.0     0.245835     0.166398     0.619353    Uiso  ? C
   C1116      1.0     0.272571     0.143840     0.649923    Uiso  ? C
   H792       1.0     0.273434     0.118302     0.625873    Uiso  ? H
   C1117      1.0     0.250349     0.175470     0.640037    Uiso  ? C
   H793       1.0     0.236158     0.176457     0.608152    Uiso  ? H
   C1118      1.0     0.263656     0.164414     0.655622    Uiso  ? C
   H794       1.0     0.283177     0.134157     0.661665    Uiso  ? H
   H795       1.0     0.242180     0.190528     0.644771    Uiso  ? H
   C1119      1.0     0.268067     0.174819     0.676757    Uiso  ? C
   C1120      1.0     0.268843     0.161652     0.696142    Uiso  ? C
   C1121      1.0     0.271954     0.197483     0.677727    Uiso  ? C
   C1122      1.0     0.275390     0.171686     0.715668    Uiso  ? C
   H796       1.0     0.266259     0.143907     0.695274    Uiso  ? H
   C1123      1.0     0.277644     0.207364     0.697952    Uiso  ? C
   H797       1.0     0.271636     0.207664     0.663713    Uiso  ? H
   C1124      1.0     0.280114     0.194583     0.716741    Uiso  ? C
   H798       1.0     0.277031     0.161046     0.730189    Uiso  ? H
   H799       1.0     0.280969     0.225662     0.698902    Uiso  ? H
   C1125      1.0     0.286710     0.204825     0.737994    Uiso  ? C
   H800       1.0     0.298790     0.194315     0.747134    Uiso  ? H
   H801       1.0     0.293692     0.221421     0.734529    Uiso  ? H
   N71        1.0     0.267201     0.206914     0.751617    Uiso  ? N
   C1126      1.0     0.254620     0.225176     0.754258    Uiso  ? C
   C1127      1.0     0.257664     0.191250     0.763902    Uiso  ? C
   C1128      1.0     0.237866     0.219724     0.768097    Uiso  ? C
   H802       1.0     0.256729     0.240059     0.745475    Uiso  ? H
   H803       1.0     0.263679     0.175348     0.765439    Uiso  ? H
   H804       1.0     0.223817     0.230173     0.772639    Uiso  ? H
   N72        1.0     0.240101     0.198548     0.774322    Uiso  ? N
   C1129      1.0     0.264306     0.822123     0.232303    Uiso  ? C
   C1130      1.0     0.276427     0.820341     0.251477    Uiso  ? C
   C1131      1.0     0.246328     0.837809     0.257786    Uiso  ? C
   N73        1.0     0.245601     0.833018     0.236553    Uiso  ? N
   H805       1.0     0.270433     0.815563     0.216730    Uiso  ? H
   H806       1.0     0.293546     0.815765     0.252985    Uiso  ? H
   H807       1.0     0.232955     0.846789     0.266800    Uiso  ? H
   N74        1.0     0.264769     0.830270     0.267425    Uiso  ? N
   C1132      1.0     0.273093     0.835661     0.289771    Uiso  ? C
   H808       1.0     0.259351     0.839427     0.300678    Uiso  ? H
   H809       1.0     0.281599     0.821074     0.295425    Uiso  ? H
   C1133      1.0     0.288910     0.854726     0.289276    Uiso  ? C
   C1134      1.0     0.310236     0.852040     0.282442    Uiso  ? C
   C1135      1.0     0.281609     0.876121     0.293883    Uiso  ? C
   C1136      1.0     0.324267     0.869961     0.279185    Uiso  ? C
   H810       1.0     0.316015     0.835492     0.278650    Uiso  ? H
   C1137      1.0     0.295257     0.894418     0.291922    Uiso  ? C
   H811       1.0     0.265077     0.879115     0.299278    Uiso  ? H
   C1138      1.0     0.317338     0.891029     0.284760    Uiso  ? C
   H812       1.0     0.340951     0.867708     0.273261    Uiso  ? H
   H813       1.0     0.289798     0.115413     0.295903    Uiso  ? H
   C1139      1.0     0.333464     0.114243     0.281862    Uiso  ? C
   C1140      1.0     0.326092     0.134229     0.272433    Uiso  ? C
   C1141      1.0     0.356101     0.112664     0.287507    Uiso  ? C
   C1142      1.0     0.340149     0.151772     0.269374    Uiso  ? C
   H814       1.0     0.308943     0.135818     0.266855    Uiso  ? H
   C1143      1.0     0.370453     0.130115     0.283067    Uiso  ? C
   H815       1.0     0.361015     0.893167     0.295494    Uiso  ? H
   C1144      1.0     0.362623     0.150137     0.274498    Uiso  ? C
   H816       1.0     0.333221     0.167070     0.262752    Uiso  ? H
   H817       1.0     0.387688     0.128290     0.287712    Uiso  ? H
   C1145      1.0     0.377819     0.169472     0.272511    Uiso  ? C
   H818       1.0     0.393477     0.163243     0.264534    Uiso  ? H
   H819       1.0     0.370340     0.182205     0.262297    Uiso  ? H
   N75        1.0     0.382886     0.177293     0.294536    Uiso  ? N
   C1146      1.0     0.371132     0.191415     0.306516    Uiso  ? C
   C1147      1.0     0.399350     0.170998     0.307968    Uiso  ? C
   C1148      1.0     0.380016     0.192603     0.327443    Uiso  ? C
   H820       1.0     0.356399     0.199516     0.301362    Uiso  ? H
   H821       1.0     0.412701     0.161401     0.301838    Uiso  ? H
   H822       1.0     0.373786     0.201543     0.341526    Uiso  ? H
   N76        1.0     0.397830     0.180219     0.328240    Uiso  ? N
   C1149      1.0     0.707041     0.814974     0.220056    Uiso  ? C
   C1150      1.0     0.696336     0.803074     0.235716    Uiso  ? C
   C1151      1.0     0.729145     0.791128     0.232598    Uiso  ? C
   N77        1.0     0.727479     0.808166     0.218709    Uiso  ? N
   H823       1.0     0.699290     0.828601     0.211513    Uiso  ? H
   H824       1.0     0.679198     0.805221     0.241185    Uiso  ? H
   H825       1.0     0.743371     0.780874     0.235074    Uiso  ? H
   N78        1.0     0.710119     0.787469     0.243026    Uiso  ? N
   C1152      1.0     0.705387     0.772808     0.261383    Uiso  ? C
   H826       1.0     0.688721     0.765723     0.259774    Uiso  ? H
   H827       1.0     0.718123     0.759364     0.260614    Uiso  ? H
   C1153      1.0     0.707476     0.784574     0.282670    Uiso  ? C
   C1154      1.0     0.728469     0.786053     0.292401    Uiso  ? C
   C1155      1.0     0.689333     0.793868     0.293181    Uiso  ? C
   C1156      1.0     0.731201     0.798301     0.311204    Uiso  ? C
   H828       1.0     0.742493     0.777752     0.285021    Uiso  ? H
   C1157      1.0     0.692310     0.806642     0.312287    Uiso  ? C
   H829       1.0     0.673032     0.792002     0.286737    Uiso  ? H
   C1158      1.0     0.713345     0.808834     0.321439    Uiso  ? C
   H830       1.0     0.747105     0.798163     0.318477    Uiso  ? H
   H831       1.0     0.678195     0.813705     0.320635    Uiso  ? H
   C1159      1.0     0.716907     0.822165     0.341506    Uiso  ? C
   C1160      1.0     0.707679     0.843403     0.343231    Uiso  ? C
   C1161      1.0     0.729986     0.813997     0.358697    Uiso  ? C
   C1162      1.0     0.711662     0.856091     0.361444    Uiso  ? C
   H832       1.0     0.696504     0.849366     0.331415    Uiso  ? H
   C1163      1.0     0.736289     0.827518     0.375652    Uiso  ? C
   H833       1.0     0.736030     0.796726     0.358589    Uiso  ? H
   C1164      1.0     0.727709     0.848632     0.376968    Uiso  ? C
   H834       1.0     0.705001     0.872257     0.362599    Uiso  ? H
   H835       1.0     0.748452     0.821703     0.387313    Uiso  ? H
   C1165      1.0     0.734308     0.862615     0.396379    Uiso  ? C
   H836       1.0     0.750357     0.857790     0.402217    Uiso  ? H
   H837       1.0     0.735176     0.880070     0.391051    Uiso  ? H
   N79        1.0     0.717636     0.859944     0.413307    Uiso  ? N
   C1166      1.0     0.716049     0.842988     0.427008    Uiso  ? C
   C1167      1.0     0.701948     0.873981     0.418579    Uiso  ? C
   C1168      1.0     0.698901     0.846929     0.440854    Uiso  ? C
   H838       1.0     0.725262     0.828148     0.426339    Uiso  ? H
   H839       1.0     0.699646     0.889607     0.411608    Uiso  ? H
   H840       1.0     0.691387     0.835681     0.451836    Uiso  ? H
   N80        1.0     0.689953     0.866706     0.435693    Uiso  ? N
   C1169      1.0     0.787673     0.367548     0.642936    Uiso  ? C
   C1170      1.0     0.780563     0.349395     0.654386    Uiso  ? C
   C1171      1.0     0.815977     0.347645     0.651183    Uiso  ? C
   N81        1.0     0.809804     0.366247     0.640705    Uiso  ? N
   H841       1.0     0.777467     0.379370     0.634206    Uiso  ? H
   H842       1.0     0.764037     0.345083     0.656793    Uiso  ? H
   H843       1.0     0.832495     0.341851     0.652217    Uiso  ? H
   N82        1.0     0.798371     0.337191     0.658738    Uiso  ? N
   C1172      1.0     0.798911     0.316174     0.669890    Uiso  ? C
   H844       1.0     0.782742     0.307494     0.667795    Uiso  ? H
   H845       1.0     0.812769     0.306552     0.663368    Uiso  ? H
   C1173      1.0     0.803061     0.320043     0.694009    Uiso  ? C
   C1174      1.0     0.824350     0.321426     0.702512    Uiso  ? C
   C1175      1.0     0.785094     0.324025     0.708415    Uiso  ? C
   C1176      1.0     0.827468     0.325087     0.724572    Uiso  ? C
   H846       1.0     0.838865     0.318530     0.692398    Uiso  ? H
   C1177      1.0     0.789191     0.329495     0.730463    Uiso  ? C
   H847       1.0     0.768418     0.323265     0.703494    Uiso  ? H
   C1178      1.0     0.810684     0.329645     0.738775    Uiso  ? C
   H848       1.0     0.843632     0.325406     0.731441    Uiso  ? H
   H849       1.0     0.775185     0.333151     0.741155    Uiso  ? H
   C1179      1.0     0.814742     0.333355     0.762436    Uiso  ? C
   C1180      1.0     0.828935     0.350224     0.769142    Uiso  ? C
   C1181      1.0     0.805858     0.319550     0.778037    Uiso  ? C
   C1182      1.0     0.833569     0.353560     0.791369    Uiso  ? C
   H850       1.0     0.835715     0.361158     0.756414    Uiso  ? H
   C1183      1.0     0.809660     0.323195     0.800110    Uiso  ? C
   H851       1.0     0.795956     0.305490     0.772524    Uiso  ? H
   C1184      1.0     0.823417     0.339918     0.807428    Uiso  ? C
   H852       1.0     0.845258     0.365366     0.797269    Uiso  ? H
   H853       1.0     0.801310     0.312304     0.812096    Uiso  ? H
   C1185      1.0     0.827155     0.343818     0.831612    Uiso  ? C
   H854       1.0     0.831092     0.361818     0.834621    Uiso  ? H
   H855       1.0     0.812029     0.339293     0.840746    Uiso  ? H
   N83        1.0     0.845748     0.330421     0.840049    Uiso  ? N
   C1186      1.0     0.864552     0.337900     0.847562    Uiso  ? C
   C1187      1.0     0.846408     0.308537     0.841642    Uiso  ? C
   C1188      1.0     0.876666     0.320182     0.854774    Uiso  ? C
   H856       1.0     0.868392     0.354831     0.849441    Uiso  ? H
   H857       1.0     0.833052     0.297763     0.836446    Uiso  ? H
   H858       1.0     0.892166     0.320118     0.862607    Uiso  ? H
   N84        1.0     0.865525     0.301442     0.850312    Uiso  ? N
   C1189      1.0     0.820668     0.642746     0.642997    Uiso  ? C
   C1190      1.0     0.816701     0.656247     0.660936    Uiso  ? C
   C1191      1.0     0.849411     0.642805     0.663639    Uiso  ? C
   N85        1.0     0.841289     0.634763     0.644572    Uiso  ? N
   H859       1.0     0.809143     0.637810     0.630471    Uiso  ? H
   H860       1.0     0.802345     0.665895     0.663936    Uiso  ? H
   H861       1.0     0.866224     0.639479     0.670072    Uiso  ? H
   N86        1.0     0.834809     0.655986     0.673366    Uiso  ? N
   C1192      1.0     0.839114     0.669427     0.692420    Uiso  ? C
   H862       1.0     0.823313     0.671283     0.701319    Uiso  ? H
   H863       1.0     0.850971     0.661353     0.703135    Uiso  ? H
   C1193      1.0     0.847027     0.691743     0.685483    Uiso  ? C
   C1194      1.0     0.869463     0.696078     0.682439    Uiso  ? C
   C1195      1.0     0.832011     0.708141     0.680590    Uiso  ? C
   C1196      1.0     0.876934     0.716659     0.675339    Uiso  ? C
   H864       1.0     0.880972     0.683189     0.684979    Uiso  ? H
   C1197      1.0     0.838589     0.727892     0.671544    Uiso  ? C
   H865       1.0     0.814632     0.703944     0.682333    Uiso  ? H
   C1198      1.0     0.861249     0.733136     0.669695    Uiso  ? C
   H866       1.0     0.894120     0.720065     0.674667    Uiso  ? H
   H867       1.0     0.825438     0.739328     0.666509    Uiso  ? H
   C1199      1.0     0.867754     0.755261     0.660355    Uiso  ? C
   C1200      1.0     0.855500     0.774360     0.665301    Uiso  ? C
   C1201      1.0     0.886554     0.757167     0.647135    Uiso  ? C
   C1202      1.0     0.861812     0.794544     0.657487    Uiso  ? C
   H868       1.0     0.842150     0.773817     0.676562    Uiso  ? H
   C1203      1.0     0.893359     0.777478     0.640327    Uiso  ? C
   H869       1.0     0.896653     0.742859     0.642603    Uiso  ? H
   C1204      1.0     0.881338     0.796231     0.644813    Uiso  ? C
   H870       1.0     0.852973     0.809395     0.662523    Uiso  ? H
   H871       1.0     0.113231     0.778743     0.631003    Uiso  ? H
   C1205      1.0     0.890036     0.818185     0.639169    Uiso  ? C
   H872       1.0     0.103105     0.817410     0.622900    Uiso  ? H
   H873       1.0     0.875641     0.828680     0.636833    Uiso  ? H
   N87        1.0     0.108558     0.826683     0.657115    Uiso  ? N
   C1206      1.0     0.129970     0.832285     0.655554    Uiso  ? C
   C1207      1.0     0.102613     0.831485     0.677868    Uiso  ? C
   C1208      1.0     0.136682     0.839931     0.675436    Uiso  ? C
   H874       1.0     0.140314     0.828466     0.642164    Uiso  ? H
   H875       1.0     0.882943     0.828345     0.685030    Uiso  ? H
   H876       1.0     0.153083     0.845122     0.679798    Uiso  ? H
   N88        1.0     0.119782     0.839803     0.689437    Uiso  ? N
   C1209      1.0     0.204368     0.624828     0.347948    Uiso  ? C
   C1210      1.0     0.205834     0.642211     0.333404    Uiso  ? C
   C1211      1.0     0.179985     0.648335     0.355849    Uiso  ? C
   N89        1.0     0.187402     0.628129     0.361654    Uiso  ? N
   H877       1.0     0.214950     0.610615     0.347386    Uiso  ? H
   H878       1.0     0.216547     0.642455     0.319487    Uiso  ? H
   H879       1.0     0.165479     0.656150     0.362742    Uiso  ? H
   N90        1.0     0.190969     0.657376     0.338646    Uiso  ? N
   C1212      1.0     0.184839     0.677003     0.326501    Uiso  ? C
   H880       1.0     0.175193     0.688604     0.336776    Uiso  ? H
   H881       1.0     0.200279     0.685972     0.322827    Uiso  ? H
   C1213      1.0     0.172570     0.671067     0.306644    Uiso  ? C
   C1214      1.0     0.182276     0.671903     0.285802    Uiso  ? C
   C1215      1.0     0.150202     0.666252     0.307876    Uiso  ? C
   C1216      1.0     0.170333     0.669816     0.266709    Uiso  ? C
   H882       1.0     0.199694     0.676444     0.284309    Uiso  ? H
   C1217      1.0     0.137980     0.663927     0.288565    Uiso  ? C
   H883       1.0     0.141072     0.664874     0.322945    Uiso  ? H
   C1218      1.0     0.148110     0.665765     0.267840    Uiso  ? C
   H884       1.0     0.179247     0.671012     0.251417    Uiso  ? H
   H885       1.0     0.120311     0.659438     0.288952    Uiso  ? H
   C1219      1.0     0.135224     0.663453     0.247357    Uiso  ? C
   C1220      1.0     0.144378     0.652768     0.229129    Uiso  ? C
   C1221      1.0     0.113397     0.671464     0.245557    Uiso  ? C
   C1222      1.0     0.131831     0.649373     0.210385    Uiso  ? C
   H886       1.0     0.161322     0.646436     0.229853    Uiso  ? H
   C1223      1.0     0.897039     0.668691     0.226109    Uiso  ? C
   H887       1.0     0.106391     0.681402     0.258971    Uiso  ? H
   C1224      1.0     0.110313     0.656906     0.208695    Uiso  ? C
   H888       1.0     0.138668     0.640795     0.196341    Uiso  ? H
   H889       1.0     0.880239     0.675469     0.224499    Uiso  ? H
   C1225      1.0     0.892484     0.652611     0.188470    Uiso  ? C
   H890       1.0     0.896005     0.636150     0.182004    Uiso  ? H
   H891       1.0     0.874822     0.653912     0.192548    Uiso  ? H
   N91        1.0     0.103292     0.668422     0.171829    Uiso  ? N
   C1226      1.0     0.116694     0.665210     0.154347    Uiso  ? C
   C1227      1.0     0.894442     0.689939     0.172314    Uiso  ? C
   C1228      1.0     0.120254     0.685165     0.144598    Uiso  ? C
   H892       1.0     0.123485     0.650349     0.149087    Uiso  ? H
   H893       1.0     0.883250     0.697420     0.184012    Uiso  ? H
   H894       1.0     0.129393     0.688182     0.129555    Uiso  ? H
   N92        1.0     0.108277     0.700416     0.155473    Uiso  ? N
   C1229      1.0     0.158766     0.339831     0.340729    Uiso  ? C
   C1230      1.0     0.166480     0.321301     0.330569    Uiso  ? C
   C1231      1.0     0.175140     0.319675     0.364445    Uiso  ? C
   N93        1.0     0.164073     0.338922     0.362007    Uiso  ? N
   H895       1.0     0.150462     0.352977     0.332758    Uiso  ? H
   H896       1.0     0.163185     0.316838     0.313411    Uiso  ? H
   H897       1.0     0.182560     0.314474     0.379400    Uiso  ? H
   N94        1.0     0.176932     0.308931     0.345313    Uiso  ? N
   C1232      1.0     0.185920     0.286893     0.341869    Uiso  ? C
   H898       1.0     0.194364     0.287352     0.325226    Uiso  ? H
   H899       1.0     0.197978     0.281774     0.354444    Uiso  ? H
   C1233      1.0     0.166885     0.270988     0.340970    Uiso  ? C
   C1234      1.0     0.156411     0.264637     0.361003    Uiso  ? C
   C1235      1.0     0.157871     0.262692     0.321393    Uiso  ? C
   C1236      1.0     0.137270     0.251719     0.360540    Uiso  ? C
   H900       1.0     0.160645     0.272363     0.376640    Uiso  ? H
   C1237      1.0     0.139325     0.249375     0.321410    Uiso  ? C
   H901       1.0     0.165741     0.267016     0.306222    Uiso  ? H
   C1238      1.0     0.129154     0.243345     0.340799    Uiso  ? C
   H902       1.0     0.129072     0.247296     0.375837    Uiso  ? H
   H903       1.0     0.131981     0.243468     0.306051    Uiso  ? H
   C1239      1.0     0.110759     0.227812     0.340883    Uiso  ? C
   C1240      1.0     0.109774     0.209894     0.355880    Uiso  ? C
   C1241      1.0     0.889476     0.229879     0.325484    Uiso  ? C
   C1242      1.0     0.887217     0.195804     0.355956    Uiso  ? C
   H904       1.0     0.122757     0.206863     0.367679    Uiso  ? H
   C1243      1.0     0.872002     0.215420     0.325172    Uiso  ? C
   H905       1.0     0.889472     0.242873     0.312948    Uiso  ? H
   C1244      1.0     0.870541     0.198284     0.340379    Uiso  ? C
   H906       1.0     0.887138     0.181860     0.366673    Uiso  ? H
   H907       1.0     0.859471     0.218160     0.312731    Uiso  ? H
   C1245      1.0     0.851698     0.182489     0.338413    Uiso  ? C
   H908       1.0     0.846928     0.175218     0.353927    Uiso  ? H
   H909       1.0     0.836361     0.191367     0.332024    Uiso  ? H
   N95        1.0     0.858537     0.164273     0.323772    Uiso  ? N
   C1246      1.0     0.870743     0.146462     0.329230    Uiso  ? C
   C1247      1.0     0.854538     0.163433     0.302043    Uiso  ? C
   C1248      1.0     0.873085     0.134330     0.310224    Uiso  ? C
   H910       1.0     0.876970     0.142564     0.345364    Uiso  ? H
   H911       1.0     0.844921     0.175207     0.292367    Uiso  ? H
   H912       1.0     0.882375     0.118943     0.308852    Uiso  ? H
   N96        1.0     0.863523     0.145066     0.293447    Uiso  ? N
