
#======================================================================
# CRYSTAL DATA
#----------------------------------------------------------------------
data_VESTA_phase_1

_chemical_name_common                  ' Atoms. Timestep: 0'
_cell_length_a                         73.670891
_cell_length_b                         73.670891
_cell_length_c                         73.670891
_cell_angle_alpha                      90.000000
_cell_angle_beta                       90.000000
_cell_angle_gamma                      90.000000
_cell_volume                           1.000000
_space_group_name_H-M_alt              'P 1'
_space_group_IT_number                 1

loop_
_space_group_symop_operation_xyz
   'x, y, z'

loop_
   _atom_site_label
   _atom_site_occupancy
   _atom_site_fract_x
   _atom_site_fract_y
   _atom_site_fract_z
   _atom_site_adp_type
   _atom_site_U_iso_or_equiv
   _atom_site_type_symbol
   C1         1.0     0.866412     0.212748     0.170051    Uiso  ? C
   C2         1.0     0.850583     0.220434     0.160529    Uiso  ? C
   C3         1.0     0.842990     0.236699     0.167493    Uiso  ? C
   H1         1.0     0.847491     0.243133     0.180200    Uiso  ? H
   C4         1.0     0.828295     0.244217     0.158412    Uiso  ? C
   H2         1.0     0.821971     0.256102     0.163460    Uiso  ? H
   C5         1.0     0.821322     0.236882     0.142073    Uiso  ? C
   H3         1.0     0.810191     0.243932     0.135180    Uiso  ? H
   C6         1.0     0.827995     0.219635     0.135832    Uiso  ? C
   C7         1.0     0.842628     0.212267     0.145141    Uiso  ? C
   H4         1.0     0.848337     0.198868     0.140682    Uiso  ? H
   C8         1.0     0.818905     0.209279     0.121540    Uiso  ? C
   C9         1.0     0.861410     0.182490     0.204219    Uiso  ? C
   C10        1.0     0.845598     0.174402     0.213694    Uiso  ? C
   C11        1.0     0.836267     0.182425     0.228302    Uiso  ? C
   H5         1.0     0.840149     0.195594     0.231710    Uiso  ? H
   C12        1.0     0.822187     0.172842     0.237435    Uiso  ? C
   H6         1.0     0.815064     0.178305     0.249323    Uiso  ? H
   C13        1.0     0.816400     0.156261     0.230789    Uiso  ? C
   H7         1.0     0.803722     0.151382     0.235488    Uiso  ? H
   C14        1.0     0.825119     0.147592     0.215776    Uiso  ? C
   C15        1.0     0.840410     0.157509     0.207603    Uiso  ? C
   H8         1.0     0.847422     0.151310     0.195396    Uiso  ? H
   C16        1.0     0.817314     0.131153     0.206847    Uiso  ? C
   C17        1.0     0.121773     0.176267     0.202559    Uiso  ? C
   C18        1.0     0.137122     0.166777     0.211249    Uiso  ? C
   C19        1.0     0.145677     0.174184     0.225935    Uiso  ? C
   H9         1.0     0.141893     0.187653     0.231222    Uiso  ? H
   C20        1.0     0.160899     0.166382     0.233697    Uiso  ? C
   H10        1.0     0.167595     0.174474     0.244101    Uiso  ? H
   C21        1.0     0.167049     0.149415     0.227728    Uiso  ? C
   H11        1.0     0.178182     0.143801     0.235153    Uiso  ? H
   C22        1.0     0.159177     0.140873     0.212372    Uiso  ? C
   C23        1.0     0.143856     0.149995     0.204805    Uiso  ? C
   H12        1.0     0.138014     0.144967     0.191725    Uiso  ? H
   C24        1.0     0.168022     0.126015     0.203962    Uiso  ? C
   C25        1.0     0.123486     0.210057     0.171644    Uiso  ? C
   C26        1.0     0.138554     0.218295     0.161407    Uiso  ? C
   C27        1.0     0.142271     0.237279     0.163963    Uiso  ? C
   H13        1.0     0.136451     0.245053     0.174180    Uiso  ? H
   C28        1.0     0.155980     0.245187     0.153173    Uiso  ? C
   H14        1.0     0.159721     0.258610     0.155150    Uiso  ? H
   C29        1.0     0.166920     0.234864     0.141668    Uiso  ? C
   H15        1.0     0.177782     0.241479     0.133392    Uiso  ? H
   C30        1.0     0.163036     0.216402     0.139574    Uiso  ? C
   C31        1.0     0.150077     0.207977     0.150366    Uiso  ? C
   H16        1.0     0.148875     0.193201     0.149360    Uiso  ? H
   C32        1.0     0.173995     0.205843     0.125690    Uiso  ? C
   C33        1.0     0.789164     0.177206     0.867568    Uiso  ? C
   C34        1.0     0.783645     0.171383     0.848745    Uiso  ? C
   C35        1.0     0.772001     0.182454     0.839435    Uiso  ? C
   H17        1.0     0.769696     0.195800     0.843845    Uiso  ? H
   C36        1.0     0.766698     0.178787     0.822325    Uiso  ? C
   H18        1.0     0.756207     0.185669     0.815709    Uiso  ? H
   C37        1.0     0.773850     0.162447     0.813780    Uiso  ? C
   H19        1.0     0.768640     0.158753     0.800301    Uiso  ? H
   C38        1.0     0.785783     0.151045     0.822751    Uiso  ? C
   C39        1.0     0.790917     0.156071     0.840518    Uiso  ? C
   H20        1.0     0.800827     0.147430     0.847556    Uiso  ? H
   C40        1.0     0.792055     0.134146     0.814601    Uiso  ? C
   C41        1.0     0.790136     0.175089     0.126295    Uiso  ? C
   C42        1.0     0.781857     0.167871     0.142601    Uiso  ? C
   C43        1.0     0.764750     0.174535     0.148289    Uiso  ? C
   H21        1.0     0.757119     0.186653     0.143269    Uiso  ? H
   C44        1.0     0.755652     0.164328     0.160803    Uiso  ? C
   H22        1.0     0.742197     0.166946     0.165149    Uiso  ? H
   C45        1.0     0.762448     0.148681     0.168097    Uiso  ? C
   H23        1.0     0.754695     0.143168     0.179369    Uiso  ? H
   C46        1.0     0.780171     0.143193     0.164443    Uiso  ? C
   C47        1.0     0.789580     0.151837     0.150570    Uiso  ? C
   H24        1.0     0.802416     0.146557     0.144878    Uiso  ? H
   C48        1.0     0.788951     0.127340     0.173493    Uiso  ? C
   C49        1.0     0.824536     0.206363     0.872168    Uiso  ? C
   C50        1.0     0.833529     0.217098     0.857519    Uiso  ? C
   C51        1.0     0.825526     0.233651     0.851247    Uiso  ? C
   H25        1.0     0.812783     0.237973     0.856295    Uiso  ? H
   C52        1.0     0.833053     0.242385     0.835525    Uiso  ? C
   H26        1.0     0.828131     0.254834     0.830959    Uiso  ? H
   C53        1.0     0.847008     0.233383     0.825661    Uiso  ? C
   H27        1.0     0.850910     0.238896     0.813082    Uiso  ? H
   C54        1.0     0.854996     0.217498     0.832338    Uiso  ? C
   C55        1.0     0.848045     0.209256     0.848332    Uiso  ? C
   H28        1.0     0.852659     0.196093     0.851522    Uiso  ? H
   C56        1.0     0.870240     0.208856     0.822598    Uiso  ? C
   C57        1.0     0.787290     0.883701     0.160345    Uiso  ? C
   C58        1.0     0.779033     0.875120     0.143668    Uiso  ? C
   C59        1.0     0.760533     0.878573     0.139962    Uiso  ? C
   H29        1.0     0.752721     0.888435     0.146574    Uiso  ? H
   C60        1.0     0.751521     0.867535     0.127089    Uiso  ? C
   H30        1.0     0.737460     0.870383     0.123581    Uiso  ? H
   C61        1.0     0.760749     0.853692     0.117732    Uiso  ? C
   H31        1.0     0.753063     0.845423     0.107707    Uiso  ? H
   C62        1.0     0.779102     0.850935     0.120830    Uiso  ? C
   C63        1.0     0.787269     0.861289     0.134077    Uiso  ? C
   H32        1.0     0.800421     0.858991     0.136648    Uiso  ? H
   C64        1.0     0.789235     0.836661     0.110770    Uiso  ? C
   C65        1.0     0.815255     0.867833     0.206277    Uiso  ? C
   C66        1.0     0.822325     0.850016     0.211769    Uiso  ? C
   C67        1.0     0.811048     0.839826     0.223205    Uiso  ? C
   H33        1.0     0.798215     0.845749     0.228185    Uiso  ? H
   C68        1.0     0.817588     0.823303     0.229318    Uiso  ? C
   H34        1.0     0.809560     0.813773     0.237761    Uiso  ? H
   C69        1.0     0.833924     0.816961     0.224547    Uiso  ? C
   H35        1.0     0.837556     0.803742     0.228260    Uiso  ? H
   C70        1.0     0.845022     0.826198     0.212669    Uiso  ? C
   C71        1.0     0.839935     0.844621     0.208058    Uiso  ? C
   H36        1.0     0.849310     0.854215     0.201963    Uiso  ? H
   C72        1.0     0.862395     0.818146     0.205446    Uiso  ? C
   C73        1.0     0.874423     0.177445     0.789328    Uiso  ? C
   C74        1.0     0.860115     0.166613     0.779380    Uiso  ? C
   C75        1.0     0.858022     0.168363     0.759947    Uiso  ? C
   H37        1.0     0.866661     0.176669     0.751602    Uiso  ? H
   C76        1.0     0.843693     0.158346     0.751735    Uiso  ? C
   H38        1.0     0.841152     0.159931     0.737204    Uiso  ? H
   C77        1.0     0.832321     0.147357     0.762372    Uiso  ? C
   H39        1.0     0.822033     0.140095     0.754755    Uiso  ? H
   C78        1.0     0.837960     0.142020     0.780171    Uiso  ? C
   C79        1.0     0.850712     0.153421     0.788560    Uiso  ? C
   H40        1.0     0.855316     0.149823     0.801580    Uiso  ? H
   C80        1.0     0.827259     0.127104     0.789728    Uiso  ? C
   C81        1.0     0.130025     0.207695     0.822550    Uiso  ? C
   C82        1.0     0.147913     0.214779     0.830476    Uiso  ? C
   C83        1.0     0.156704     0.229808     0.822425    Uiso  ? C
   H41        1.0     0.151279     0.236133     0.810638    Uiso  ? H
   C84        1.0     0.172626     0.236352     0.830511    Uiso  ? C
   H42        1.0     0.180354     0.247259     0.825363    Uiso  ? H
   C85        1.0     0.179292     0.228203     0.846044    Uiso  ? C
   H43        1.0     0.190559     0.234441     0.853313    Uiso  ? H
   C86        1.0     0.170079     0.213118     0.853856    Uiso  ? C
   C87        1.0     0.154746     0.205611     0.845771    Uiso  ? C
   H44        1.0     0.147622     0.194420     0.851462    Uiso  ? H
   C88        1.0     0.178071     0.204315     0.871318    Uiso  ? C
   C89        1.0     0.206832     0.172674     0.126566    Uiso  ? C
   C90        1.0     0.215263     0.164310     0.143098    Uiso  ? C
   C91        1.0     0.229539     0.173691     0.152194    Uiso  ? C
   H45        1.0     0.237705     0.184260     0.144841    Uiso  ? H
   C92        1.0     0.234017     0.168548     0.169606    Uiso  ? C
   H46        1.0     0.244299     0.175702     0.176820    Uiso  ? H
   C93        1.0     0.225771     0.153468     0.177859    Uiso  ? C
   H47        1.0     0.231149     0.150854     0.192184    Uiso  ? H
   C94        1.0     0.212735     0.142480     0.168159    Uiso  ? C
   C95        1.0     0.207430     0.148628     0.151173    Uiso  ? C
   H48        1.0     0.195842     0.141551     0.146185    Uiso  ? H
   C96        1.0     0.204672     0.126637     0.178080    Uiso  ? C
   O1         1.0     0.876156     0.201918     0.161837    Uiso  ? O
   O2         1.0     0.868417     0.214039     0.187114    Uiso  ? O
   O3         1.0     0.872472     0.172109     0.195640    Uiso  ? O
   O4         1.0     0.865254     0.199843     0.205127    Uiso  ? O
   O5         1.0     0.120345     0.177528     0.185359    Uiso  ? O
   O6         1.0     0.111293     0.186378     0.211784    Uiso  ? O
   O7         1.0     0.122142     0.192756     0.170489    Uiso  ? O
   O8         1.0     0.111421     0.219013     0.180332    Uiso  ? O
   O9         1.0     0.796349     0.166730     0.879373    Uiso  ? O
   O10        1.0     0.788860     0.194186     0.870042    Uiso  ? O
   O11        1.0     0.807204     0.174578     0.123775    Uiso  ? O
   O12        1.0     0.780385     0.181102     0.114242    Uiso  ? O
   O13        1.0     0.822746     0.192841     0.119014    Uiso  ? O
   O14        1.0     0.805517     0.216638     0.113527    Uiso  ? O
   O15        1.0     0.832449     0.192757     0.879972    Uiso  ? O
   O16        1.0     0.807273     0.209493     0.875976    Uiso  ? O
   O17        1.0     0.804527     0.886869     0.159823    Uiso  ? O
   O18        1.0     0.778317     0.889077     0.174628    Uiso  ? O
   O19        1.0     0.825428     0.880439     0.200471    Uiso  ? O
   O20        1.0     0.798772     0.870566     0.204828    Uiso  ? O
   O21        1.0     0.822321     0.127094     0.190769    Uiso  ? O
   O22        1.0     0.804307     0.122190     0.215095    Uiso  ? O
   O23        1.0     0.806360     0.126845     0.174032    Uiso  ? O
   O24        1.0     0.779472     0.115797     0.181590    Uiso  ? O
   O25        1.0     0.876218     0.176989     0.806365    Uiso  ? O
   O26        1.0     0.885668     0.186480     0.780595    Uiso  ? O
   O27        1.0     0.871835     0.191201     0.822473    Uiso  ? O
   O28        1.0     0.880805     0.218080     0.813571    Uiso  ? O
   O29        1.0     0.119113     0.200168     0.833157    Uiso  ? O
   O30        1.0     0.126620     0.208301     0.805277    Uiso  ? O
   O31        1.0     0.118613     0.166268     0.803845    Uiso  ? O
   O32        1.0     0.126403     0.191914     0.789033    Uiso  ? O
   O33        1.0     0.175247     0.186434     0.873035    Uiso  ? O
   O34        1.0     0.187502     0.213036     0.883251    Uiso  ? O
   O35        1.0     0.165666     0.196099     0.113666    Uiso  ? O
   O36        1.0     0.190846     0.205208     0.127126    Uiso  ? O
   O37        1.0     0.198481     0.163372     0.114473    Uiso  ? O
   O38        1.0     0.206845     0.189637     0.125532    Uiso  ? O
   O39        1.0     0.192206     0.171820     0.875863    Uiso  ? O
   O40        1.0     0.217592     0.184065     0.886222    Uiso  ? O
   O41        1.0     0.820445     0.873169     0.808312    Uiso  ? O
   O42        1.0     0.809249     0.880237     0.781326    Uiso  ? O
   O43        1.0     0.805831     0.876210     0.822220    Uiso  ? O
   O44        1.0     0.780433     0.889085     0.815117    Uiso  ? O
   O45        1.0     0.798275     0.122044     0.825538    Uiso  ? O
   O46        1.0     0.792001     0.131066     0.797533    Uiso  ? O
   O47        1.0     0.835473     0.116765     0.802245    Uiso  ? O
   O48        1.0     0.810204     0.124398     0.785541    Uiso  ? O
   O49        1.0     0.883929     0.157409     0.162972    Uiso  ? O
   O50        1.0     0.838824     0.155278     0.896676    Uiso  ? O
   O51        1.0     0.847814     0.896936     0.169095    Uiso  ? O
   O52        1.0     0.102035     0.166368     0.846780    Uiso  ? O
   O53        1.0     0.157327     0.153875     0.898091    Uiso  ? O
   O54        1.0     0.835490     0.109258     0.843850    Uiso  ? O
   Zn1        1.0     0.891188     0.181213     0.175059    Uiso  ? Zn
   Zn2        1.0     0.891518     0.208176     0.202547    Uiso  ? Zn
   Zn3        1.0     0.818075     0.174517     0.896681    Uiso  ? Zn
   Zn4        1.0     0.787503     0.202111     0.897263    Uiso  ? Zn
   Zn5        1.0     0.821160     0.896989     0.178634    Uiso  ? Zn
   Zn6        1.0     0.787192     0.894812     0.202489    Uiso  ? Zn
   Zn7        1.0     0.897985     0.179690     0.822725    Uiso  ? Zn
   Zn8        1.0     0.897619     0.208595     0.792723    Uiso  ? Zn
   Zn9        1.0     0.176888     0.173978     0.898723    Uiso  ? Zn
   Zn10       1.0     0.204869     0.204985     0.102096    Uiso  ? Zn
   Zn11       1.0     0.819548     0.103946     0.820397    Uiso  ? Zn
   Zn12       1.0     0.791789     0.103009     0.791786    Uiso  ? Zn
   C97        1.0     0.117337     0.787046     0.831482    Uiso  ? C
   C98        1.0     0.128803     0.777229     0.844895    Uiso  ? C
   C99        1.0     0.129438     0.758323     0.845318    Uiso  ? C
   H49        1.0     0.121452     0.749343     0.836860    Uiso  ? H
   C100       1.0     0.141508     0.749863     0.857639    Uiso  ? C
   H50        1.0     0.142137     0.735905     0.858468    Uiso  ? H
   C101       1.0     0.151847     0.760453     0.869223    Uiso  ? C
   H51        1.0     0.161789     0.753692     0.877169    Uiso  ? H
   C102       1.0     0.150564     0.779663     0.869825    Uiso  ? C
   C103       1.0     0.138091     0.788417     0.858406    Uiso  ? C
   H52        1.0     0.136410     0.803366     0.857968    Uiso  ? H
   C104       1.0     0.163573     0.790183     0.880661    Uiso  ? C
   C105       1.0     0.129292     0.821256     0.787479    Uiso  ? C
   C106       1.0     0.145968     0.828340     0.780284    Uiso  ? C
   C107       1.0     0.156557     0.817504     0.768738    Uiso  ? C
   H53        1.0     0.153286     0.803548     0.765035    Uiso  ? H
   C108       1.0     0.172637     0.823534     0.763318    Uiso  ? C
   H54        1.0     0.181885     0.814584     0.756858    Uiso  ? H
   C109       1.0     0.179329     0.839797     0.768928    Uiso  ? C
   H55        1.0     0.193247     0.844004     0.765528    Uiso  ? H
   C110       1.0     0.170678     0.850914     0.781906    Uiso  ? C
   C111       1.0     0.152816     0.845468     0.786973    Uiso  ? C
   H56        1.0     0.144302     0.853802     0.796429    Uiso  ? H
   C112       1.0     0.180375     0.867071     0.789781    Uiso  ? C
   C113       1.0     0.868943     0.823122     0.790460    Uiso  ? C
   C114       1.0     0.854042     0.832091     0.781142    Uiso  ? C
   C115       1.0     0.849599     0.827823     0.764063    Uiso  ? C
   H57        1.0     0.858018     0.819592     0.755309    Uiso  ? H
   C116       1.0     0.835814     0.836244     0.755081    Uiso  ? C
   H58        1.0     0.836033     0.835171     0.740681    Uiso  ? H
   C117       1.0     0.826499     0.849809     0.763000    Uiso  ? C
   H59        1.0     0.817605     0.858049     0.755035    Uiso  ? H
   C118       1.0     0.829173     0.854917     0.781295    Uiso  ? C
   C119       1.0     0.842936     0.844866     0.790736    Uiso  ? C
   H60        1.0     0.844922     0.848788     0.804360    Uiso  ? H
   C120       1.0     0.819164     0.870254     0.790942    Uiso  ? C
   C121       1.0     0.873176     0.791365     0.821755    Uiso  ? C
   C122       1.0     0.858384     0.781968     0.831871    Uiso  ? C
   C123       1.0     0.857233     0.763243     0.832205    Uiso  ? C
   H61        1.0     0.868013     0.754748     0.826288    Uiso  ? H
   C124       1.0     0.843270     0.753494     0.841191    Uiso  ? C
   H62        1.0     0.841224     0.738778     0.840001    Uiso  ? H
   C125       1.0     0.830301     0.764162     0.850761    Uiso  ? C
   H63        1.0     0.818884     0.757923     0.857377    Uiso  ? H
   C126       1.0     0.831644     0.782932     0.852156    Uiso  ? C
   C127       1.0     0.844980     0.792101     0.841358    Uiso  ? C
   H64        1.0     0.845997     0.807664     0.841355    Uiso  ? H
   C128       1.0     0.819616     0.792501     0.864694    Uiso  ? C
   C129       1.0     0.201490     0.821747     0.128885    Uiso  ? C
   C130       1.0     0.211044     0.830786     0.145056    Uiso  ? C
   C131       1.0     0.229896     0.828823     0.148424    Uiso  ? C
   H65        1.0     0.238133     0.818815     0.141150    Uiso  ? H
   C132       1.0     0.237948     0.837751     0.162399    Uiso  ? C
   H66        1.0     0.252074     0.836024     0.165033    Uiso  ? H
   C133       1.0     0.229934     0.852365     0.170086    Uiso  ? C
   H67        1.0     0.237863     0.861053     0.179850    Uiso  ? H
   C134       1.0     0.211744     0.855390     0.166790    Uiso  ? C
   C135       1.0     0.201439     0.843808     0.155366    Uiso  ? C
   H68        1.0     0.187148     0.846665     0.152755    Uiso  ? H
   C136       1.0     0.202211     0.870053     0.175069    Uiso  ? C
   C137       1.0     0.206963     0.822127     0.874777    Uiso  ? C
   C138       1.0     0.215556     0.828939     0.858579    Uiso  ? C
   C139       1.0     0.229964     0.820022     0.850067    Uiso  ? C
   H69        1.0     0.235154     0.809508     0.856546    Uiso  ? H
   C140       1.0     0.236417     0.826877     0.832899    Uiso  ? C
   H70        1.0     0.247264     0.820018     0.825431    Uiso  ? H
   C141       1.0     0.227728     0.841862     0.824383    Uiso  ? C
   H71        1.0     0.233814     0.847228     0.811463    Uiso  ? H
   C142       1.0     0.214443     0.851272     0.834306    Uiso  ? C
   C143       1.0     0.208099     0.845246     0.851278    Uiso  ? C
   H72        1.0     0.196804     0.851758     0.857356    Uiso  ? H
   C144       1.0     0.208155     0.868009     0.825124    Uiso  ? C
   C145       1.0     0.168379     0.794264     0.124127    Uiso  ? C
   C146       1.0     0.157313     0.783798     0.138287    Uiso  ? C
   C147       1.0     0.161905     0.765755     0.141995    Uiso  ? C
   H73        1.0     0.171188     0.758412     0.134502    Uiso  ? H
   C148       1.0     0.152052     0.755913     0.154527    Uiso  ? C
   H74        1.0     0.155192     0.741723     0.156849    Uiso  ? H
   C149       1.0     0.138140     0.764225     0.164066    Uiso  ? C
   H75        1.0     0.128692     0.755736     0.172515    Uiso  ? H
   C150       1.0     0.135999     0.782728     0.163446    Uiso  ? C
   C151       1.0     0.145255     0.792179     0.150069    Uiso  ? C
   H76        1.0     0.143568     0.807424     0.150266    Uiso  ? H
   C152       1.0     0.121324     0.791484     0.174368    Uiso  ? C
   C153       1.0     0.209582     0.123343     0.826854    Uiso  ? C
   C154       1.0     0.219965     0.137440     0.838589    Uiso  ? C
   C155       1.0     0.238793     0.138307     0.836803    Uiso  ? C
   H77        1.0     0.246559     0.130549     0.827534    Uiso  ? H
   C156       1.0     0.247896     0.151540     0.846588    Uiso  ? C
   H78        1.0     0.262772     0.152358     0.845861    Uiso  ? H
   C157       1.0     0.239940     0.162062     0.859367    Uiso  ? C
   H79        1.0     0.248534     0.169747     0.867610    Uiso  ? H
   C158       1.0     0.220553     0.161101     0.862446    Uiso  ? C
   C159       1.0     0.211026     0.149089     0.850996    Uiso  ? C
   H80        1.0     0.197562     0.147176     0.851522    Uiso  ? H
   C160       1.0     0.209430     0.172478     0.876225    Uiso  ? C
   C161       1.0     0.178802     0.126777     0.793467    Uiso  ? C
   C162       1.0     0.169979     0.143875     0.785639    Uiso  ? C
   C163       1.0     0.177337     0.153027     0.770740    Uiso  ? C
   H81        1.0     0.190407     0.147931     0.764381    Uiso  ? H
   C164       1.0     0.169318     0.167399     0.762589    Uiso  ? C
   H82        1.0     0.175196     0.171973     0.750133    Uiso  ? H
   C165       1.0     0.152603     0.173884     0.770649    Uiso  ? C
   H83        1.0     0.147671     0.186974     0.763467    Uiso  ? H
   C166       1.0     0.145461     0.165946     0.785803    Uiso  ? C
   C167       1.0     0.154370     0.150829     0.793190    Uiso  ? C
   H84        1.0     0.147243     0.144454     0.805051    Uiso  ? H
   C168       1.0     0.128836     0.175165     0.792903    Uiso  ? C
   C169       1.0     0.124423     0.823166     0.207426    Uiso  ? C
   C170       1.0     0.137702     0.832867     0.217613    Uiso  ? C
   C171       1.0     0.141766     0.828700     0.235493    Uiso  ? C
   H85        1.0     0.134472     0.818921     0.243679    Uiso  ? H
   C172       1.0     0.154189     0.839569     0.244980    Uiso  ? C
   H86        1.0     0.156451     0.837695     0.259803    Uiso  ? H
   C173       1.0     0.164948     0.851915     0.236620    Uiso  ? C
   H87        1.0     0.175817     0.857924     0.244209    Uiso  ? H
   C174       1.0     0.162323     0.855173     0.217972    Uiso  ? C
   C175       1.0     0.148169     0.845917     0.208412    Uiso  ? C
   H88        1.0     0.146728     0.847827     0.193553    Uiso  ? H
   C176       1.0     0.172457     0.870114     0.208644    Uiso  ? C
   C177       1.0     0.870284     0.791843     0.169390    Uiso  ? C
   C178       1.0     0.854011     0.783502     0.160129    Uiso  ? C
   C179       1.0     0.844441     0.770482     0.170090    Uiso  ? C
   H89        1.0     0.849402     0.765223     0.182772    Uiso  ? H
   C180       1.0     0.829791     0.761426     0.161650    Uiso  ? C
   H90        1.0     0.824764     0.748535     0.168660    Uiso  ? H
   C181       1.0     0.823554     0.766667     0.144404    Uiso  ? C
   H91        1.0     0.814398     0.757324     0.137943    Uiso  ? H
   C182       1.0     0.831425     0.781918     0.135937    Uiso  ? C
   C183       1.0     0.846548     0.790219     0.144227    Uiso  ? C
   H92        1.0     0.853253     0.801232     0.137628    Uiso  ? H
   C184       1.0     0.822582     0.789906     0.120085    Uiso  ? C
   C185       1.0     0.790987     0.828555     0.870315    Uiso  ? C
   C186       1.0     0.780554     0.841430     0.859375    Uiso  ? C
   C187       1.0     0.761935     0.842845     0.860590    Uiso  ? C
   H93        1.0     0.756404     0.835537     0.871028    Uiso  ? H
   C188       1.0     0.751321     0.853368     0.849261    Uiso  ? C
   H94        1.0     0.736906     0.854781     0.851346    Uiso  ? H
   C189       1.0     0.760081     0.864029     0.836491    Uiso  ? C
   H95        1.0     0.751503     0.873490     0.829212    Uiso  ? H
   C190       1.0     0.779585     0.863691     0.834461    Uiso  ? C
   C191       1.0     0.789419     0.851565     0.845571    Uiso  ? C
   H96        1.0     0.804583     0.854364     0.847572    Uiso  ? H
   C192       1.0     0.789058     0.876572     0.823040    Uiso  ? C
   O55        1.0     0.114886     0.804002     0.834274    Uiso  ? O
   O56        1.0     0.110322     0.779336     0.817008    Uiso  ? O
   O57        1.0     0.120424     0.830603     0.798391    Uiso  ? O
   O58        1.0     0.126533     0.804453     0.787360    Uiso  ? O
   O59        1.0     0.872360     0.826471     0.807213    Uiso  ? O
   O60        1.0     0.878574     0.811435     0.782300    Uiso  ? O
   O61        1.0     0.875882     0.808085     0.824609    Uiso  ? O
   O62        1.0     0.884537     0.782196     0.811406    Uiso  ? O
   O63        1.0     0.185013     0.826426     0.124391    Uiso  ? O
   O64        1.0     0.209586     0.809859     0.119649    Uiso  ? O
   O65        1.0     0.199179     0.832289     0.886516    Uiso  ? O
   O66        1.0     0.205827     0.804853     0.876232    Uiso  ? O
   O67        1.0     0.160854     0.807070     0.882984    Uiso  ? O
   O68        1.0     0.177189     0.782713     0.887192    Uiso  ? O
   O69        1.0     0.168856     0.811696     0.123700    Uiso  ? O
   O70        1.0     0.176701     0.784605     0.112110    Uiso  ? O
   O71        1.0     0.192155     0.122464     0.827479    Uiso  ? O
   O72        1.0     0.218350     0.113405     0.816298    Uiso  ? O
   O73        1.0     0.177687     0.124169     0.810729    Uiso  ? O
   O74        1.0     0.189082     0.116880     0.783292    Uiso  ? O
   O75        1.0     0.170906     0.879211     0.797114    Uiso  ? O
   O76        1.0     0.197823     0.868542     0.790186    Uiso  ? O
   O77        1.0     0.196953     0.877472     0.833348    Uiso  ? O
   O78        1.0     0.211633     0.871714     0.808893    Uiso  ? O
   O79        1.0     0.122321     0.824973     0.190284    Uiso  ? O
   O80        1.0     0.112504     0.814594     0.216541    Uiso  ? O
   O81        1.0     0.121467     0.808547     0.175742    Uiso  ? O
   O82        1.0     0.108520     0.783385     0.182513    Uiso  ? O
   O83        1.0     0.877465     0.805064     0.162304    Uiso  ? O
   O84        1.0     0.873124     0.787449     0.185931    Uiso  ? O
   O85        1.0     0.874837     0.827785     0.197587    Uiso  ? O
   O86        1.0     0.865296     0.801275     0.206515    Uiso  ? O
   O87        1.0     0.831511     0.802741     0.111973    Uiso  ? O
   O88        1.0     0.806228     0.786862     0.115705    Uiso  ? O
   O89        1.0     0.823262     0.809201     0.867370    Uiso  ? O
   O90        1.0     0.807402     0.784790     0.874314    Uiso  ? O
   O91        1.0     0.808856     0.826824     0.869004    Uiso  ? O
   O92        1.0     0.782336     0.819671     0.882991    Uiso  ? O
   O93        1.0     0.806251     0.839533     0.108372    Uiso  ? O
   O94        1.0     0.781568     0.823549     0.102359    Uiso  ? O
   O95        1.0     0.160204     0.116508     0.191477    Uiso  ? O
   O96        1.0     0.184686     0.123257     0.208089    Uiso  ? O
   O97        1.0     0.196732     0.114522     0.169362    Uiso  ? O
   O98        1.0     0.203775     0.126367     0.195249    Uiso  ? O
   O99        1.0     0.184991     0.870155     0.175114    Uiso  ? O
   O100       1.0     0.211315     0.881448     0.184327    Uiso  ? O
   O101       1.0     0.171305     0.871504     0.191261    Uiso  ? O
   O102       1.0     0.181531     0.881080     0.218000    Uiso  ? O
   O103       1.0     0.107786     0.844387     0.834445    Uiso  ? O
   O104       1.0     0.157015     0.847792     0.893691    Uiso  ? O
   O105       1.0     0.152924     0.892395     0.838729    Uiso  ? O
   O106       1.0     0.891753     0.844064     0.157863    Uiso  ? O
   O107       1.0     0.845446     0.835271     0.898753    Uiso  ? O
   O108       1.0     0.158604     0.895109     0.151519    Uiso  ? O
   Zn13       1.0     0.101997     0.821928     0.818527    Uiso  ? Zn
   Zn14       1.0     0.102059     0.791936     0.790786    Uiso  ? Zn
   Zn15       1.0     0.174954     0.824819     0.898883    Uiso  ? Zn
   Zn16       1.0     0.200315     0.791526     0.898881    Uiso  ? Zn
   Zn17       1.0     0.176092     0.895054     0.821225    Uiso  ? Zn
   Zn18       1.0     0.209449     0.895543     0.793436    Uiso  ? Zn
   Zn19       1.0     0.892860     0.822634     0.176352    Uiso  ? Zn
   Zn20       1.0     0.892704     0.792625     0.205159    Uiso  ? Zn
   Zn21       1.0     0.823456     0.821050     0.893588    Uiso  ? Zn
   Zn22       1.0     0.791370     0.795352     0.894002    Uiso  ? Zn
   Zn23       1.0     0.173169     0.894651     0.175576    Uiso  ? Zn
   Zn24       1.0     0.200973     0.895969     0.205944    Uiso  ? Zn
   H97        1.0     0.159743     0.856304     0.884133    Uiso  ? H
   H98        1.0     0.146077     0.849830     0.100193    Uiso  ? H
   H99        1.0     0.835195     0.142471     0.897000    Uiso  ? H
   H100       1.0     0.851519     0.159159     0.898005    Uiso  ? H
   H101       1.0     0.847851     0.114123     0.843805    Uiso  ? H
   H102       1.0     0.827157     0.110107     0.854103    Uiso  ? H
   H103       1.0     0.894948     0.172418     0.857472    Uiso  ? H
   H104       1.0     0.104548     0.153625     0.847855    Uiso  ? H
   H105       1.0     0.151715     0.884012     0.149487    Uiso  ? H
   H106       1.0     0.162742     0.107420     0.142861    Uiso  ? H
   H107       1.0     0.877806     0.148195     0.169161    Uiso  ? H
   H108       1.0     0.892399     0.154576     0.153633    Uiso  ? H
   H109       1.0     0.156123     0.148129     0.108528    Uiso  ? H
   H110       1.0     0.149927     0.151588     0.887576    Uiso  ? H
   H111       1.0     0.884181     0.854322     0.159955    Uiso  ? H
   H112       1.0     0.102153     0.842723     0.147255    Uiso  ? H
   H113       1.0     0.854003     0.886063     0.171281    Uiso  ? H
   H114       1.0     0.855739     0.111516     0.167369    Uiso  ? H
   H115       1.0     0.847868     0.848519     0.102275    Uiso  ? H
   H116       1.0     0.856412     0.830117     0.893711    Uiso  ? H
   H117       1.0     0.147595     0.106939     0.840754    Uiso  ? H
   H118       1.0     0.146681     0.881175     0.839695    Uiso  ? H
   H119       1.0     0.118641     0.848945     0.830621    Uiso  ? H
   H120       1.0     0.101675     0.846788     0.845179    Uiso  ? H
   C193       1.0     0.871688     0.398253     0.421612    Uiso  ? C
   C194       1.0     0.856568     0.388931     0.431819    Uiso  ? C
   C195       1.0     0.852629     0.370917     0.427777    Uiso  ? C
   H121       1.0     0.859725     0.364119     0.416654    Uiso  ? H
   C196       1.0     0.840315     0.360857     0.437893    Uiso  ? C
   H122       1.0     0.839757     0.346968     0.434098    Uiso  ? H
   C197       1.0     0.831551     0.369371     0.452708    Uiso  ? C
   H123       1.0     0.822008     0.362138     0.460677    Uiso  ? H
   C198       1.0     0.835074     0.387983     0.457475    Uiso  ? C
   C199       1.0     0.848234     0.397709     0.447101    Uiso  ? C
   H124       1.0     0.851076     0.412530     0.449566    Uiso  ? H
   C200       1.0     0.825933     0.397649     0.473837    Uiso  ? C
   C201       1.0     0.866279     0.424248     0.389986    Uiso  ? C
   C202       1.0     0.849785     0.432319     0.380880    Uiso  ? C
   C203       1.0     0.841535     0.422678     0.367027    Uiso  ? C
   H125       1.0     0.848289     0.410628     0.362290    Uiso  ? H
   C204       1.0     0.825059     0.428637     0.358731    Uiso  ? C
   H126       1.0     0.816275     0.420608     0.349857    Uiso  ? H
   C205       1.0     0.818689     0.445428     0.364250    Uiso  ? C
   H127       1.0     0.806909     0.451028     0.358611    Uiso  ? H
   C206       1.0     0.827950     0.456497     0.376227    Uiso  ? C
   C207       1.0     0.842334     0.448643     0.385364    Uiso  ? C
   H128       1.0     0.849276     0.456560     0.395502    Uiso  ? H
   C208       1.0     0.821374     0.474134     0.382044    Uiso  ? C
   C209       1.0     0.125558     0.430283     0.384977    Uiso  ? C
   C210       1.0     0.142368     0.440111     0.377764    Uiso  ? C
   C211       1.0     0.151364     0.431789     0.363313    Uiso  ? C
   H129       1.0     0.145700     0.420738     0.356215    Uiso  ? H
   C212       1.0     0.169095     0.437194     0.358459    Uiso  ? C
   H130       1.0     0.176031     0.431326     0.346695    Uiso  ? H
   C213       1.0     0.176069     0.453202     0.367167    Uiso  ? C
   H131       1.0     0.188463     0.458396     0.361569    Uiso  ? H
   C214       1.0     0.167162     0.462061     0.381706    Uiso  ? C
   C215       1.0     0.149891     0.456071     0.385813    Uiso  ? C
   H132       1.0     0.143472     0.461400     0.397329    Uiso  ? H
   C216       1.0     0.176119     0.477135     0.390641    Uiso  ? C
   C217       1.0     0.116927     0.391493     0.426909    Uiso  ? C
   C218       1.0     0.127047     0.382156     0.440280    Uiso  ? C
   C219       1.0     0.120930     0.364675     0.445126    Uiso  ? C
   H133       1.0     0.110898     0.357280     0.437565    Uiso  ? H
   C220       1.0     0.130041     0.354957     0.459477    Uiso  ? C
   H134       1.0     0.127520     0.340126     0.462945    Uiso  ? H
   C221       1.0     0.144596     0.364332     0.468980    Uiso  ? C
   H135       1.0     0.149990     0.358289     0.480754    Uiso  ? H
   C222       1.0     0.149142     0.382212     0.464548    Uiso  ? C
   C223       1.0     0.140907     0.391583     0.449727    Uiso  ? C
   H136       1.0     0.143862     0.406511     0.447101    Uiso  ? H
   C224       1.0     0.165331     0.391451     0.473951    Uiso  ? C
   C225       1.0     0.787019     0.427432     0.525301    Uiso  ? C
   C226       1.0     0.778707     0.433766     0.542494    Uiso  ? C
   C227       1.0     0.765461     0.423426     0.550744    Uiso  ? C
   H137       1.0     0.757928     0.412603     0.543463    Uiso  ? H
   C228       1.0     0.759607     0.427233     0.568167    Uiso  ? C
   H138       1.0     0.749933     0.418310     0.574768    Uiso  ? H
   C229       1.0     0.765677     0.443115     0.576916    Uiso  ? C
   H139       1.0     0.762964     0.445178     0.591912    Uiso  ? H
   C230       1.0     0.777825     0.454799     0.567927    Uiso  ? C
   C231       1.0     0.784556     0.449823     0.551022    Uiso  ? C
   H140       1.0     0.794136     0.456766     0.544854    Uiso  ? H
   C232       1.0     0.785078     0.471184     0.577703    Uiso  ? C
   C233       1.0     0.791884     0.424403     0.469764    Uiso  ? C
   C234       1.0     0.785357     0.430886     0.452138    Uiso  ? C
   C235       1.0     0.771275     0.421562     0.442771    Uiso  ? C
   H141       1.0     0.767411     0.407869     0.447543    Uiso  ? H
   C236       1.0     0.764671     0.428223     0.426599    Uiso  ? C
   H142       1.0     0.753459     0.420009     0.420226    Uiso  ? H
   C237       1.0     0.769949     0.444927     0.419148    Uiso  ? C
   H143       1.0     0.763015     0.449976     0.407268    Uiso  ? H
   C238       1.0     0.784579     0.453397     0.427740    Uiso  ? C
   C239       1.0     0.792818     0.446254     0.443505    Uiso  ? C
   H144       1.0     0.802606     0.453602     0.450919    Uiso  ? H
   C240       1.0     0.791435     0.471162     0.419441    Uiso  ? C
   C241       1.0     0.830699     0.390053     0.516414    Uiso  ? C
   C242       1.0     0.844060     0.378352     0.526292    Uiso  ? C
   C243       1.0     0.848152     0.361270     0.519069    Uiso  ? C
   H145       1.0     0.841373     0.355380     0.506880    Uiso  ? H
   C244       1.0     0.858791     0.349938     0.530409    Uiso  ? C
   H146       1.0     0.861761     0.335573     0.526444    Uiso  ? H
   C245       1.0     0.867344     0.356705     0.545646    Uiso  ? C
   H147       1.0     0.875736     0.347101     0.554303    Uiso  ? H
   C246       1.0     0.866629     0.375464     0.549938    Uiso  ? C
   C247       1.0     0.853441     0.385363     0.540972    Uiso  ? C
   H148       1.0     0.849405     0.398936     0.545161    Uiso  ? H
   C248       1.0     0.876987     0.385051     0.564314    Uiso  ? C
   C249       1.0     0.792788     0.522994     0.423384    Uiso  ? C
   C250       1.0     0.783198     0.536556     0.433607    Uiso  ? C
   C251       1.0     0.766949     0.543996     0.427002    Uiso  ? C
   H149       1.0     0.760009     0.537909     0.415935    Uiso  ? H
   C252       1.0     0.758708     0.558242     0.436482    Uiso  ? C
   H150       1.0     0.745980     0.562718     0.432160    Uiso  ? H
   C253       1.0     0.767538     0.566096     0.451450    Uiso  ? C
   H151       1.0     0.760793     0.575366     0.459765    Uiso  ? H
   C254       1.0     0.783927     0.558618     0.457873    Uiso  ? C
   C255       1.0     0.791102     0.543562     0.449427    Uiso  ? C
   H152       1.0     0.804633     0.539029     0.452837    Uiso  ? H
   C256       1.0     0.792461     0.567984     0.472895    Uiso  ? C
   C257       1.0     0.823140     0.528604     0.389830    Uiso  ? C
   C258       1.0     0.831744     0.545213     0.383545    Uiso  ? C
   C259       1.0     0.825116     0.554727     0.369225    Uiso  ? C
   H153       1.0     0.813856     0.548868     0.360767    Uiso  ? H
   C260       1.0     0.833533     0.570855     0.363377    Uiso  ? C
   H154       1.0     0.828706     0.577332     0.350759    Uiso  ? H
   C261       1.0     0.848382     0.577594     0.373397    Uiso  ? C
   H155       1.0     0.853249     0.591169     0.369740    Uiso  ? H
   C262       1.0     0.856949     0.567365     0.386603    Uiso  ? C
   C263       1.0     0.847859     0.551324     0.391839    Uiso  ? C
   H156       1.0     0.853750     0.542953     0.403776    Uiso  ? H
   C264       1.0     0.871347     0.575041     0.397827    Uiso  ? C
   C265       1.0     0.864044     0.422048     0.607411    Uiso  ? C
   C266       1.0     0.847308     0.429674     0.617047    Uiso  ? C
   C267       1.0     0.839469     0.421426     0.632474    Uiso  ? C
   H157       1.0     0.847932     0.411984     0.640581    Uiso  ? H
   C268       1.0     0.823114     0.428296     0.640246    Uiso  ? C
   H158       1.0     0.816836     0.421422     0.651050    Uiso  ? H
   C269       1.0     0.814625     0.443066     0.631556    Uiso  ? C
   H159       1.0     0.802161     0.447002     0.638454    Uiso  ? H
   C270       1.0     0.823710     0.453121     0.617966    Uiso  ? C
   C271       1.0     0.839274     0.446313     0.611091    Uiso  ? C
   H160       1.0     0.844628     0.453382     0.599015    Uiso  ? H
   C272       1.0     0.814232     0.469022     0.610090    Uiso  ? C
   C273       1.0     0.122130     0.391002     0.572241    Uiso  ? C
   C274       1.0     0.135288     0.383296     0.559145    Uiso  ? C
   C275       1.0     0.138132     0.364374     0.560034    Uiso  ? C
   H161       1.0     0.130409     0.356535     0.570360    Uiso  ? H
   C276       1.0     0.146532     0.354430     0.546319    Uiso  ? C
   H162       1.0     0.144445     0.339733     0.545199    Uiso  ? H
   C277       1.0     0.155798     0.364431     0.533292    Uiso  ? C
   H163       1.0     0.164852     0.357286     0.523750    Uiso  ? H
   C278       1.0     0.154898     0.384013     0.532273    Uiso  ? C
   C279       1.0     0.144654     0.393129     0.546069    Uiso  ? C
   H164       1.0     0.143399     0.407478     0.546068    Uiso  ? H
   C280       1.0     0.164586     0.394200     0.517276    Uiso  ? C
   C281       1.0     0.208301     0.426936     0.470761    Uiso  ? C
   C282       1.0     0.218665     0.435983     0.455559    Uiso  ? C
   C283       1.0     0.233625     0.427286     0.446560    Uiso  ? C
   H165       1.0     0.236057     0.413988     0.451341    Uiso  ? H
   C284       1.0     0.241465     0.434744     0.430211    Uiso  ? C
   H166       1.0     0.252874     0.426980     0.424896    Uiso  ? H
   C285       1.0     0.232814     0.449629     0.422210    Uiso  ? C
   H167       1.0     0.237869     0.454334     0.408890    Uiso  ? H
   C286       1.0     0.218857     0.458575     0.430682    Uiso  ? C
   C287       1.0     0.212281     0.451798     0.447698    Uiso  ? C
   H168       1.0     0.201395     0.458468     0.454656    Uiso  ? H
   C288       1.0     0.210484     0.474018     0.421852    Uiso  ? C
   O109       1.0     0.874032     0.415458     0.423517    Uiso  ? O
   O110       1.0     0.883652     0.388693     0.413492    Uiso  ? O
   O111       1.0     0.871182     0.431230     0.404863    Uiso  ? O
   O112       1.0     0.876364     0.412291     0.381839    Uiso  ? O
   O113       1.0     0.114583     0.440154     0.394092    Uiso  ? O
   O114       1.0     0.127237     0.413976     0.387412    Uiso  ? O
   O115       1.0     0.114399     0.408273     0.428354    Uiso  ? O
   O116       1.0     0.109678     0.382807     0.413846    Uiso  ? O
   O117       1.0     0.796990     0.437862     0.515322    Uiso  ? O
   O118       1.0     0.789699     0.410000     0.524978    Uiso  ? O
   O119       1.0     0.806620     0.430600     0.476039    Uiso  ? O
   O120       1.0     0.783800     0.411876     0.478353    Uiso  ? O
   O121       1.0     0.825940     0.414946     0.475674    Uiso  ? O
   O122       1.0     0.817451     0.387253     0.485255    Uiso  ? O
   O123       1.0     0.831690     0.406957     0.516851    Uiso  ? O
   O124       1.0     0.817181     0.382526     0.508168    Uiso  ? O
   O125       1.0     0.810149     0.522572     0.422793    Uiso  ? O
   O126       1.0     0.784043     0.511800     0.413458    Uiso  ? O
   O127       1.0     0.823801     0.525788     0.406617    Uiso  ? O
   O128       1.0     0.810584     0.520020     0.381182    Uiso  ? O
   O129       1.0     0.831502     0.484003     0.391961    Uiso  ? O
   O130       1.0     0.804379     0.475297     0.383842    Uiso  ? O
   O131       1.0     0.802477     0.482057     0.427474    Uiso  ? O
   O132       1.0     0.787405     0.474948     0.402828    Uiso  ? O
   O133       1.0     0.875290     0.433171     0.600251    Uiso  ? O
   O134       1.0     0.866820     0.404948     0.606801    Uiso  ? O
   O135       1.0     0.875684     0.402365     0.565246    Uiso  ? O
   O136       1.0     0.887022     0.377075     0.575903    Uiso  ? O
   O137       1.0     0.120102     0.408192     0.573312    Uiso  ? O
   O138       1.0     0.110663     0.380304     0.579161    Uiso  ? O
   O139       1.0     0.120151     0.422901     0.590910    Uiso  ? O
   O140       1.0     0.114602     0.403704     0.613986    Uiso  ? O
   O141       1.0     0.167432     0.411926     0.518433    Uiso  ? O
   O142       1.0     0.174177     0.384235     0.506450    Uiso  ? O
   O143       1.0     0.166056     0.408663     0.475385    Uiso  ? O
   O144       1.0     0.174695     0.382320     0.485046    Uiso  ? O
   O145       1.0     0.199167     0.435876     0.481889    Uiso  ? O
   O146       1.0     0.206538     0.410232     0.471944    Uiso  ? O
   O147       1.0     0.185296     0.424890     0.522110    Uiso  ? O
   O148       1.0     0.209241     0.407892     0.516084    Uiso  ? O
   O149       1.0     0.818675     0.522973     0.593808    Uiso  ? O
   O150       1.0     0.809335     0.511600     0.619893    Uiso  ? O
   O151       1.0     0.804337     0.523835     0.577901    Uiso  ? O
   O152       1.0     0.776740     0.516803     0.588592    Uiso  ? O
   O153       1.0     0.794348     0.482486     0.568656    Uiso  ? O
   O154       1.0     0.782448     0.473413     0.595072    Uiso  ? O
   O155       1.0     0.823945     0.480607     0.601730    Uiso  ? O
   O156       1.0     0.796786     0.470155     0.610294    Uiso  ? O
   O157       1.0     0.106204     0.448757     0.434180    Uiso  ? O
   O158       1.0     0.839840     0.449199     0.501171    Uiso  ? O
   O159       1.0     0.846785     0.493266     0.432118    Uiso  ? O
   O160       1.0     0.887048     0.444679     0.561378    Uiso  ? O
   O161       1.0     0.161245     0.451635     0.490416    Uiso  ? O
   O162       1.0     0.836004     0.494291     0.563415    Uiso  ? O
   Zn25       1.0     0.898135     0.430129     0.414916    Uiso  ? Zn
   Zn26       1.0     0.103300     0.397896     0.390632    Uiso  ? Zn
   Zn27       1.0     0.820247     0.429326     0.500859    Uiso  ? Zn
   Zn28       1.0     0.793853     0.397481     0.499809    Uiso  ? Zn
   Zn29       1.0     0.822844     0.497219     0.416392    Uiso  ? Zn
   Zn30       1.0     0.790535     0.499341     0.390085    Uiso  ? Zn
   Zn31       1.0     0.890724     0.422029     0.578106    Uiso  ? Zn
   Zn32       1.0     0.890538     0.389478     0.601920    Uiso  ? Zn
   Zn33       1.0     0.175697     0.426613     0.494286    Uiso  ? Zn
   Zn34       1.0     0.199515     0.395701     0.493963    Uiso  ? Zn
   Zn35       1.0     0.814699     0.497254     0.580547    Uiso  ? Zn
   Zn36       1.0     0.786889     0.498138     0.609302    Uiso  ? Zn
   C289       1.0     0.129941     0.598731     0.583617    Uiso  ? C
   C290       1.0     0.147886     0.602126     0.578004    Uiso  ? C
   C291       1.0     0.159441     0.610975     0.590540    Uiso  ? C
   H169       1.0     0.154153     0.616784     0.602961    Uiso  ? H
   C292       1.0     0.178352     0.613107     0.586769    Uiso  ? C
   H170       1.0     0.186435     0.619463     0.597271    Uiso  ? H
   C293       1.0     0.184621     0.607756     0.569209    Uiso  ? C
   H171       1.0     0.198280     0.611978     0.565563    Uiso  ? H
   C294       1.0     0.172619     0.600242     0.556171    Uiso  ? C
   C295       1.0     0.154904     0.595988     0.561071    Uiso  ? C
   H172       1.0     0.146752     0.588829     0.551781    Uiso  ? H
   C296       1.0     0.180392     0.593479     0.538323    Uiso  ? C
   C297       1.0     0.124676     0.566444     0.611279    Uiso  ? C
   C298       1.0     0.138852     0.555625     0.620662    Uiso  ? C
   C299       1.0     0.147150     0.563683     0.635655    Uiso  ? C
   H173       1.0     0.143508     0.577825     0.639679    Uiso  ? H
   C300       1.0     0.162862     0.555454     0.642877    Uiso  ? C
   H174       1.0     0.168131     0.562756     0.654696    Uiso  ? H
   C301       1.0     0.168265     0.537802     0.637286    Uiso  ? C
   H175       1.0     0.179648     0.531272     0.643941    Uiso  ? H
   C302       1.0     0.158914     0.529522     0.622706    Uiso  ? C
   C303       1.0     0.145045     0.539552     0.613404    Uiso  ? C
   H176       1.0     0.137556     0.533180     0.602004    Uiso  ? H
   C304       1.0     0.166238     0.513364     0.613584    Uiso  ? C
   C305       1.0     0.870757     0.566360     0.607559    Uiso  ? C
   C306       1.0     0.856078     0.557993     0.617655    Uiso  ? C
   C307       1.0     0.856492     0.559237     0.636816    Uiso  ? C
   H177       1.0     0.865304     0.569994     0.644837    Uiso  ? H
   C308       1.0     0.844259     0.548388     0.647514    Uiso  ? C
   H178       1.0     0.843291     0.549625     0.661825    Uiso  ? H
   C309       1.0     0.830852     0.538573     0.638384    Uiso  ? C
   H179       1.0     0.820442     0.531547     0.645908    Uiso  ? H
   C310       1.0     0.831216     0.535986     0.619597    Uiso  ? C
   C311       1.0     0.843621     0.546409     0.608983    Uiso  ? C
   H180       1.0     0.841580     0.545900     0.594149    Uiso  ? H
   C312       1.0     0.817892     0.524155     0.610639    Uiso  ? C
   C313       1.0     0.870932     0.599770     0.575222    Uiso  ? C
   C314       1.0     0.856040     0.609248     0.565806    Uiso  ? C
   C315       1.0     0.851909     0.626567     0.570056    Uiso  ? C
   H181       1.0     0.859207     0.633871     0.580345    Uiso  ? H
   C316       1.0     0.838653     0.636328     0.559730    Uiso  ? C
   H182       1.0     0.836933     0.651287     0.560630    Uiso  ? H
   C317       1.0     0.831364     0.628134     0.544025    Uiso  ? C
   H183       1.0     0.821589     0.635732     0.535363    Uiso  ? H
   C318       1.0     0.833226     0.609626     0.541489    Uiso  ? C
   C319       1.0     0.847594     0.601067     0.550391    Uiso  ? C
   H184       1.0     0.852501     0.587899     0.545625    Uiso  ? H
   C320       1.0     0.823475     0.599817     0.526828    Uiso  ? C
   C321       1.0     0.208780     0.568330     0.478122    Uiso  ? C
   C322       1.0     0.217778     0.560857     0.462764    Uiso  ? C
   C323       1.0     0.236389     0.564663     0.459647    Uiso  ? C
   H185       1.0     0.245537     0.574093     0.467945    Uiso  ? H
   C324       1.0     0.246044     0.554960     0.445939    Uiso  ? C
   H186       1.0     0.260338     0.558646     0.444242    Uiso  ? H
   C325       1.0     0.237033     0.543085     0.434689    Uiso  ? C
   H187       1.0     0.244957     0.535894     0.424340    Uiso  ? H
   C326       1.0     0.218950     0.539231     0.437733    Uiso  ? C
   C327       1.0     0.209158     0.547721     0.451758    Uiso  ? C
   H188       1.0     0.194564     0.544262     0.453942    Uiso  ? H
   C328       1.0     0.209084     0.525568     0.427359    Uiso  ? C
   C329       1.0     0.210734     0.555600     0.527535    Uiso  ? C
   C330       1.0     0.220261     0.542997     0.539317    Uiso  ? C
   C331       1.0     0.238920     0.544618     0.541901    Uiso  ? C
   H189       1.0     0.246192     0.555095     0.535267    Uiso  ? H
   C332       1.0     0.247560     0.532207     0.553626    Uiso  ? C
   H190       1.0     0.262495     0.534481     0.556233    Uiso  ? H
   C333       1.0     0.237906     0.518453     0.562346    Uiso  ? C
   H191       1.0     0.245215     0.509868     0.571874    Uiso  ? H
   C334       1.0     0.218830     0.518063     0.561290    Uiso  ? C
   C335       1.0     0.209945     0.529753     0.547511    Uiso  ? C
   H192       1.0     0.195811     0.530191     0.547327    Uiso  ? H
   C336       1.0     0.207831     0.506415     0.573319    Uiso  ? C
   C337       1.0     0.174387     0.596759     0.485572    Uiso  ? C
   C338       1.0     0.163848     0.608950     0.473985    Uiso  ? C
   C339       1.0     0.163913     0.628268     0.476343    Uiso  ? C
   H193       1.0     0.174383     0.634314     0.484463    Uiso  ? H
   C340       1.0     0.153246     0.639396     0.465672    Uiso  ? C
   H194       1.0     0.155106     0.654666     0.466365    Uiso  ? H
   C341       1.0     0.142124     0.631304     0.452703    Uiso  ? C
   H195       1.0     0.136960     0.639686     0.441795    Uiso  ? H
   C342       1.0     0.140255     0.612100     0.450117    Uiso  ? C
   C343       1.0     0.150519     0.600835     0.461426    Uiso  ? C
   H196       1.0     0.149404     0.586502     0.460885    Uiso  ? H
   C344       1.0     0.126656     0.604890     0.436138    Uiso  ? C
   C345       1.0     0.202340     0.463734     0.577339    Uiso  ? C
   C346       1.0     0.211179     0.448794     0.567229    Uiso  ? C
   C347       1.0     0.228437     0.442561     0.572150    Uiso  ? C
   H197       1.0     0.236038     0.448376     0.584319    Uiso  ? H
   C348       1.0     0.236689     0.429064     0.561853    Uiso  ? C
   H198       1.0     0.249931     0.425790     0.566248    Uiso  ? H
   C349       1.0     0.229100     0.422287     0.546634    Uiso  ? C
   H199       1.0     0.238326     0.412723     0.539007    Uiso  ? H
   C350       1.0     0.210992     0.426157     0.542164    Uiso  ? C
   C351       1.0     0.202073     0.440104     0.552100    Uiso  ? C
   H200       1.0     0.188153     0.442496     0.548846    Uiso  ? H
   C352       1.0     0.201008     0.418755     0.526554    Uiso  ? C
   C353       1.0     0.174201     0.461220     0.609199    Uiso  ? C
   C354       1.0     0.165935     0.444787     0.617259    Uiso  ? C
   C355       1.0     0.171598     0.437801     0.634149    Uiso  ? C
   H201       1.0     0.182675     0.444131     0.641245    Uiso  ? H
   C356       1.0     0.163284     0.423302     0.641605    Uiso  ? C
   H202       1.0     0.166728     0.419139     0.654858    Uiso  ? H
   C357       1.0     0.147416     0.415868     0.633148    Uiso  ? C
   H203       1.0     0.139392     0.405040     0.640159    Uiso  ? H
   C358       1.0     0.141194     0.422757     0.616026    Uiso  ? C
   C359       1.0     0.151280     0.437908     0.608756    Uiso  ? C
   H204       1.0     0.146452     0.444639     0.595450    Uiso  ? H
   C360       1.0     0.124204     0.416818     0.606651    Uiso  ? C
   C361       1.0     0.131764     0.579217     0.400534    Uiso  ? C
   C362       1.0     0.147495     0.571338     0.391258    Uiso  ? C
   C363       1.0     0.156489     0.580444     0.377272    Uiso  ? C
   H205       1.0     0.151430     0.593528     0.374448    Uiso  ? H
   C364       1.0     0.170264     0.572413     0.368520    Uiso  ? C
   H206       1.0     0.177930     0.580275     0.359986    Uiso  ? H
   C365       1.0     0.177967     0.556823     0.375391    Uiso  ? C
   H207       1.0     0.190130     0.552049     0.368933    Uiso  ? H
   C366       1.0     0.168276     0.546393     0.388756    Uiso  ? C
   C367       1.0     0.153288     0.553913     0.398187    Uiso  ? C
   H208       1.0     0.144866     0.546312     0.407210    Uiso  ? H
   C368       1.0     0.177057     0.529966     0.396933    Uiso  ? C
   C369       1.0     0.880580     0.609741     0.437925    Uiso  ? C
   C370       1.0     0.870149     0.618453     0.453107    Uiso  ? C
   C371       1.0     0.874849     0.635814     0.459956    Uiso  ? C
   H209       1.0     0.885430     0.645146     0.453665    Uiso  ? H
   C372       1.0     0.863660     0.643418     0.474079    Uiso  ? C
   H210       1.0     0.866955     0.656950     0.479377    Uiso  ? H
   C373       1.0     0.850032     0.632870     0.481942    Uiso  ? C
   H211       1.0     0.844023     0.638588     0.494081    Uiso  ? H
   C374       1.0     0.845125     0.616506     0.475497    Uiso  ? C
   C375       1.0     0.855986     0.608865     0.461682    Uiso  ? C
   H212       1.0     0.853204     0.595459     0.457950    Uiso  ? H
   C376       1.0     0.830197     0.605682     0.483560    Uiso  ? C
   C377       1.0     0.790421     0.573063     0.529747    Uiso  ? C
   C378       1.0     0.781791     0.565901     0.546132    Uiso  ? C
   C379       1.0     0.765337     0.573985     0.552833    Uiso  ? C
   H213       1.0     0.759011     0.585746     0.547273    Uiso  ? H
   C380       1.0     0.756725     0.566786     0.567920    Uiso  ? C
   H214       1.0     0.745396     0.572995     0.573773    Uiso  ? H
   C381       1.0     0.762996     0.550871     0.576000    Uiso  ? C
   H215       1.0     0.757210     0.548147     0.589412    Uiso  ? H
   C382       1.0     0.778665     0.542298     0.568993    Uiso  ? C
   C383       1.0     0.788465     0.550145     0.554865    Uiso  ? C
   H216       1.0     0.800021     0.543012     0.550584    Uiso  ? H
   C384       1.0     0.787195     0.526847     0.578876    Uiso  ? C
   O163       1.0     0.119474     0.589904     0.572732    Uiso  ? O
   O164       1.0     0.125681     0.600341     0.600404    Uiso  ? O
   O165       1.0     0.115498     0.557860     0.598971    Uiso  ? O
   O166       1.0     0.121357     0.583015     0.615339    Uiso  ? O
   O167       1.0     0.871795     0.565971     0.589990    Uiso  ? O
   O168       1.0     0.881874     0.575604     0.616793    Uiso  ? O
   O169       1.0     0.872084     0.582552     0.575210    Uiso  ? O
   O170       1.0     0.882676     0.608579     0.585081    Uiso  ? O
   O171       1.0     0.191716     0.565658     0.480384    Uiso  ? O
   O172       1.0     0.219202     0.575756     0.490747    Uiso  ? O
   O173       1.0     0.197743     0.549985     0.517496    Uiso  ? O
   O174       1.0     0.214149     0.572608     0.527944    Uiso  ? O
   O175       1.0     0.169383     0.586612     0.526496    Uiso  ? O
   O176       1.0     0.197546     0.592880     0.535410    Uiso  ? O
   O177       1.0     0.174877     0.580014     0.482695    Uiso  ? O
   O178       1.0     0.185464     0.603642     0.497213    Uiso  ? O
   O179       1.0     0.185612     0.466036     0.576336    Uiso  ? O
   O180       1.0     0.211859     0.472847     0.588352    Uiso  ? O
   O181       1.0     0.169655     0.465426     0.592556    Uiso  ? O
   O182       1.0     0.186666     0.469268     0.617100    Uiso  ? O
   O183       1.0     0.156808     0.502682     0.604088    Uiso  ? O
   O184       1.0     0.183342     0.510762     0.614020    Uiso  ? O
   O185       1.0     0.190892     0.507099     0.572469    Uiso  ? O
   O186       1.0     0.215963     0.497102     0.585199    Uiso  ? O
   O187       1.0     0.126387     0.572378     0.415596    Uiso  ? O
   O188       1.0     0.122412     0.591552     0.393317    Uiso  ? O
   O189       1.0     0.125527     0.587840     0.434309    Uiso  ? O
   O190       1.0     0.115770     0.615257     0.426912    Uiso  ? O
   O191       1.0     0.881500     0.592824     0.437498    Uiso  ? O
   O192       1.0     0.891658     0.618150     0.427273    Uiso  ? O
   O193       1.0     0.882481     0.564727     0.405593    Uiso  ? O
   O194       1.0     0.875461     0.591540     0.396374    Uiso  ? O
   O195       1.0     0.831202     0.589171     0.483677    Uiso  ? O
   O196       1.0     0.818000     0.612408     0.493089    Uiso  ? O
   O197       1.0     0.825454     0.582536     0.524787    Uiso  ? O
   O198       1.0     0.814188     0.609171     0.514715    Uiso  ? O
   O199       1.0     0.806824     0.566964     0.526177    Uiso  ? O
   O200       1.0     0.783312     0.584705     0.519657    Uiso  ? O
   O201       1.0     0.798772     0.558147     0.485186    Uiso  ? O
   O202       1.0     0.792126     0.585540     0.473901    Uiso  ? O
   O203       1.0     0.167163     0.488285     0.400387    Uiso  ? O
   O204       1.0     0.193570     0.478480     0.389948    Uiso  ? O
   O205       1.0     0.199740     0.484640     0.431765    Uiso  ? O
   O206       1.0     0.211850     0.477330     0.404904    Uiso  ? O
   O207       1.0     0.192318     0.523825     0.428025    Uiso  ? O
   O208       1.0     0.218664     0.515214     0.418281    Uiso  ? O
   O209       1.0     0.176966     0.526910     0.413517    Uiso  ? O
   O210       1.0     0.187515     0.520654     0.387304    Uiso  ? O
   O211       1.0     0.103841     0.559459     0.550527    Uiso  ? O
   O212       1.0     0.157805     0.546079     0.508643    Uiso  ? O
   O213       1.0     0.150387     0.494058     0.559923    Uiso  ? O
   O214       1.0     0.893455     0.553523     0.445101    Uiso  ? O
   O215       1.0     0.831466     0.543777     0.494950    Uiso  ? O
   O216       1.0     0.162473     0.495423     0.445939    Uiso  ? O
   Zn37       1.0     0.896979     0.570963     0.576295    Uiso  ? Zn
   Zn38       1.0     0.896193     0.598412     0.605830    Uiso  ? Zn
   Zn39       1.0     0.177638     0.566704     0.507708    Uiso  ? Zn
   Zn40       1.0     0.209330     0.593439     0.509466    Uiso  ? Zn
   Zn41       1.0     0.170225     0.490585     0.582307    Uiso  ? Zn
   Zn42       1.0     0.205087     0.491036     0.610487    Uiso  ? Zn
   Zn43       1.0     0.101663     0.572984     0.427154    Uiso  ? Zn
   Zn44       1.0     0.102236     0.607067     0.402730    Uiso  ? Zn
   Zn45       1.0     0.819154     0.568394     0.500453    Uiso  ? Zn
   Zn46       1.0     0.792982     0.599540     0.496104    Uiso  ? Zn
   Zn47       1.0     0.179261     0.500790     0.423345    Uiso  ? Zn
   Zn48       1.0     0.207717     0.503035     0.395210    Uiso  ? Zn
   H217       1.0     0.148829     0.545594     0.517926    Uiso  ? H
   H218       1.0     0.160438     0.535522     0.502088    Uiso  ? H
   H219       1.0     0.842261     0.453082     0.513359    Uiso  ? H
   H220       1.0     0.842649     0.457234     0.491927    Uiso  ? H
   H221       1.0     0.848242     0.497592     0.566173    Uiso  ? H
   H222       1.0     0.832858     0.493274     0.551272    Uiso  ? H
   H223       1.0     0.877741     0.453447     0.562365    Uiso  ? H
   H224       1.0     0.895167     0.443717     0.551474    Uiso  ? H
   H225       1.0     0.167231     0.490027     0.457342    Uiso  ? H
   H226       1.0     0.150309     0.499627     0.447433    Uiso  ? H
   H227       1.0     0.892372     0.454617     0.438659    Uiso  ? H
   H228       1.0     0.118138     0.452551     0.437589    Uiso  ? H
   H229       1.0     0.158980     0.455113     0.477699    Uiso  ? H
   H230       1.0     0.150868     0.452952     0.498954    Uiso  ? H
   H231       1.0     0.895407     0.556578     0.457789    Uiso  ? H
   H232       1.0     0.884506     0.543156     0.444813    Uiso  ? H
   H233       1.0     0.846314     0.495438     0.445223    Uiso  ? H
   H234       1.0     0.858570     0.488047     0.428458    Uiso  ? H
   H235       1.0     0.837923     0.535461     0.503679    Uiso  ? H
   H236       1.0     0.830332     0.539557     0.481859    Uiso  ? H
   H237       1.0     0.151173     0.483318     0.552153    Uiso  ? H
   H238       1.0     0.139227     0.502389     0.560589    Uiso  ? H
   H239       1.0     0.892066     0.552363     0.544029    Uiso  ? H
   H240       1.0     0.115509     0.557993     0.545023    Uiso  ? H
   C385       1.0     0.604965     0.874548     0.432919    Uiso  ? C
   C386       1.0     0.616215     0.864572     0.445914    Uiso  ? C
   C387       1.0     0.635825     0.863612     0.444171    Uiso  ? C
   H241       1.0     0.643185     0.870674     0.432858    Uiso  ? H
   C388       1.0     0.646417     0.853749     0.457010    Uiso  ? C
   H242       1.0     0.660583     0.851706     0.455678    Uiso  ? H
   C389       1.0     0.636979     0.844120     0.470080    Uiso  ? C
   H243       1.0     0.646235     0.837047     0.479115    Uiso  ? H
   C390       1.0     0.618365     0.842407     0.470673    Uiso  ? C
   C391       1.0     0.607912     0.853320     0.458776    Uiso  ? C
   H244       1.0     0.592960     0.853232     0.460118    Uiso  ? H
   C392       1.0     0.609172     0.829190     0.482580    Uiso  ? C
   C393       1.0     0.578223     0.860828     0.393231    Uiso  ? C
   C394       1.0     0.571112     0.843263     0.386519    Uiso  ? C
   C395       1.0     0.581560     0.831897     0.375330    Uiso  ? C
   H245       1.0     0.594508     0.835711     0.369888    Uiso  ? H
   C396       1.0     0.575944     0.814187     0.372751    Uiso  ? C
   H246       1.0     0.585670     0.805783     0.366555    Uiso  ? H
   C397       1.0     0.559707     0.808194     0.379547    Uiso  ? C
   H247       1.0     0.556236     0.793659     0.376060    Uiso  ? H
   C398       1.0     0.548012     0.820189     0.389078    Uiso  ? C
   C399       1.0     0.554268     0.837177     0.392554    Uiso  ? C
   H248       1.0     0.546885     0.847413     0.401243    Uiso  ? H
   C400       1.0     0.530351     0.814291     0.394951    Uiso  ? C
   C401       1.0     0.570308     0.120145     0.391040    Uiso  ? C
   C402       1.0     0.559880     0.134169     0.380709    Uiso  ? C
   C403       1.0     0.560270     0.133530     0.360669    Uiso  ? C
   H249       1.0     0.569066     0.124753     0.353974    Uiso  ? H
   C404       1.0     0.548609     0.145602     0.351330    Uiso  ? C
   H250       1.0     0.549128     0.145578     0.336421    Uiso  ? H
   C405       1.0     0.538445     0.158476     0.360932    Uiso  ? C
   H251       1.0     0.529813     0.167556     0.353457    Uiso  ? H
   C406       1.0     0.537051     0.158559     0.380002    Uiso  ? C
   C407       1.0     0.549566     0.147027     0.389258    Uiso  ? C
   H252       1.0     0.549455     0.148674     0.404161    Uiso  ? H
   C408       1.0     0.525681     0.172693     0.389600    Uiso  ? C
   C409       1.0     0.605060     0.122705     0.422232    Uiso  ? C
   C410       1.0     0.614911     0.136739     0.433631    Uiso  ? C
   C411       1.0     0.632883     0.140936     0.428859    Uiso  ? C
   H253       1.0     0.639501     0.133892     0.418157    Uiso  ? H
   C412       1.0     0.642961     0.153921     0.437682    Uiso  ? C
   H254       1.0     0.657310     0.157361     0.433535    Uiso  ? H
   C413       1.0     0.634339     0.163954     0.451697    Uiso  ? C
   H255       1.0     0.642257     0.175376     0.458747    Uiso  ? H
   C414       1.0     0.615949     0.160840     0.455735    Uiso  ? C
   C415       1.0     0.606928     0.146665     0.447063    Uiso  ? C
   H256       1.0     0.593279     0.144648     0.450490    Uiso  ? H
   C416       1.0     0.606479     0.171542     0.470058    Uiso  ? C
   C417       1.0     0.574622     0.792483     0.530876    Uiso  ? C
   C418       1.0     0.566582     0.784178     0.547409    Uiso  ? C
   C419       1.0     0.569440     0.765820     0.551759    Uiso  ? C
   H257       1.0     0.579183     0.758185     0.542889    Uiso  ? H
   C420       1.0     0.562673     0.757942     0.566803    Uiso  ? C
   H258       1.0     0.566254     0.744394     0.571300    Uiso  ? H
   C421       1.0     0.548524     0.766696     0.576553    Uiso  ? C
   H259       1.0     0.542117     0.759704     0.587368    Uiso  ? H
   C422       1.0     0.542662     0.784126     0.571021    Uiso  ? C
   C423       1.0     0.552130     0.792703     0.555783    Uiso  ? C
   H260       1.0     0.547079     0.805388     0.552251    Uiso  ? H
   C424       1.0     0.527969     0.794434     0.580907    Uiso  ? C
   C425       1.0     0.572799     0.786216     0.472724    Uiso  ? C
   C426       1.0     0.563116     0.776102     0.458158    Uiso  ? C
   C427       1.0     0.572801     0.763700     0.448165    Uiso  ? C
   H261       1.0     0.586163     0.759703     0.450276    Uiso  ? H
   C428       1.0     0.564040     0.753798     0.434340    Uiso  ? C
   H262       1.0     0.571668     0.742762     0.427280    Uiso  ? H
   C429       1.0     0.546489     0.758888     0.428538    Uiso  ? C
   H263       1.0     0.540731     0.752796     0.416774    Uiso  ? H
   C430       1.0     0.538199     0.774551     0.435574    Uiso  ? C
   C431       1.0     0.546014     0.782537     0.451136    Uiso  ? C
   H264       1.0     0.538822     0.794818     0.457263    Uiso  ? H
   C432       1.0     0.523188     0.782712     0.425796    Uiso  ? C
   C433       1.0     0.606381     0.823921     0.523884    Uiso  ? C
   C434       1.0     0.617604     0.835635     0.536162    Uiso  ? C
   C435       1.0     0.636231     0.835047     0.535885    Uiso  ? C
   H265       1.0     0.642243     0.825393     0.527945    Uiso  ? H
   C436       1.0     0.646530     0.846702     0.546710    Uiso  ? C
   H266       1.0     0.660842     0.845398     0.547235    Uiso  ? H
   C437       1.0     0.637992     0.860596     0.555606    Uiso  ? C
   H267       1.0     0.646197     0.870168     0.562237    Uiso  ? H
   C438       1.0     0.618903     0.861697     0.556908    Uiso  ? C
   C439       1.0     0.608162     0.849225     0.546615    Uiso  ? C
   H268       1.0     0.594253     0.851306     0.546829    Uiso  ? H
   C440       1.0     0.611121     0.876913     0.567991    Uiso  ? C
   C441       1.0     0.479864     0.782830     0.432134    Uiso  ? C
   C442       1.0     0.468621     0.771661     0.444777    Uiso  ? C
   C443       1.0     0.460637     0.755296     0.438514    Uiso  ? C
   H269       1.0     0.466385     0.749061     0.426604    Uiso  ? H
   C444       1.0     0.445004     0.748881     0.446570    Uiso  ? C
   H270       1.0     0.437571     0.738200     0.439635    Uiso  ? H
   C445       1.0     0.436866     0.757772     0.461017    Uiso  ? C
   H271       1.0     0.423546     0.753621     0.466724    Uiso  ? H
   C446       1.0     0.444542     0.773891     0.468459    Uiso  ? C
   C447       1.0     0.460711     0.780236     0.460692    Uiso  ? C
   H272       1.0     0.468846     0.790784     0.466994    Uiso  ? H
   C448       1.0     0.435817     0.783893     0.483750    Uiso  ? C
   C449       1.0     0.474408     0.821435     0.393204    Uiso  ? C
   C450       1.0     0.458211     0.831443     0.385109    Uiso  ? C
   C451       1.0     0.451705     0.827040     0.367905    Uiso  ? C
   H273       1.0     0.457238     0.815506     0.360739    Uiso  ? H
   C452       1.0     0.439217     0.837471     0.359145    Uiso  ? C
   H274       1.0     0.434613     0.832947     0.345621    Uiso  ? H
   C453       1.0     0.432350     0.853083     0.367055    Uiso  ? C
   H275       1.0     0.423867     0.862025     0.360220    Uiso  ? H
   C454       1.0     0.436337     0.856209     0.385649    Uiso  ? C
   C455       1.0     0.450382     0.846474     0.393956    Uiso  ? C
   H276       1.0     0.454894     0.849283     0.407396    Uiso  ? H
   C456       1.0     0.427331     0.870943     0.395581    Uiso  ? C
   C457       1.0     0.583975     0.873100     0.600077    Uiso  ? C
   C458       1.0     0.574731     0.858420     0.610802    Uiso  ? C
   C459       1.0     0.583138     0.851602     0.626152    Uiso  ? C
   H277       1.0     0.596822     0.856334     0.627918    Uiso  ? H
   C460       1.0     0.574157     0.838485     0.636485    Uiso  ? C
   H278       1.0     0.579316     0.834124     0.648917    Uiso  ? H
   C461       1.0     0.557772     0.831491     0.631492    Uiso  ? C
   H279       1.0     0.551450     0.821682     0.639975    Uiso  ? H
   C462       1.0     0.549885     0.836410     0.614628    Uiso  ? C
   C463       1.0     0.558362     0.850342     0.604594    Uiso  ? C
   H280       1.0     0.553606     0.853366     0.590213    Uiso  ? H
   C464       1.0     0.532825     0.828694     0.608768    Uiso  ? C
   C465       1.0     0.616282     0.124774     0.563582    Uiso  ? C
   C466       1.0     0.625722     0.135654     0.549828    Uiso  ? C
   C467       1.0     0.644863     0.136471     0.549301    Uiso  ? C
   H281       1.0     0.653233     0.127188     0.556841    Uiso  ? H
   C468       1.0     0.653318     0.146835     0.536273    Uiso  ? C
   H282       1.0     0.667626     0.147719     0.536018    Uiso  ? H
   C469       1.0     0.643329     0.157201     0.523728    Uiso  ? C
   H283       1.0     0.649515     0.164441     0.513204    Uiso  ? H
   C470       1.0     0.624004     0.157798     0.524746    Uiso  ? C
   C471       1.0     0.615780     0.146710     0.538164    Uiso  ? C
   H284       1.0     0.601798     0.147720     0.540228    Uiso  ? H
   C472       1.0     0.612705     0.170111     0.513353    Uiso  ? C
   C473       1.0     0.577839     0.204855     0.464232    Uiso  ? C
   C474       1.0     0.570891     0.211854     0.446448    Uiso  ? C
   C475       1.0     0.577227     0.228918     0.439438    Uiso  ? C
   H285       1.0     0.589319     0.235814     0.444906    Uiso  ? H
   C476       1.0     0.569634     0.236800     0.424301    Uiso  ? C
   H286       1.0     0.576043     0.249393     0.419307    Uiso  ? H
   C477       1.0     0.555600     0.228291     0.415422    Uiso  ? C
   H287       1.0     0.549496     0.235965     0.404185    Uiso  ? H
   C478       1.0     0.547197     0.212618     0.422579    Uiso  ? C
   C479       1.0     0.555950     0.203339     0.437268    Uiso  ? C
   H288       1.0     0.548886     0.191389     0.443109    Uiso  ? H
   C480       1.0     0.529898     0.205105     0.414836    Uiso  ? C
   O217       1.0     0.588412     0.878026     0.437257    Uiso  ? O
   O218       1.0     0.612355     0.881794     0.418042    Uiso  ? O
   O219       1.0     0.567386     0.872633     0.400079    Uiso  ? O
   O220       1.0     0.594546     0.865197     0.391111    Uiso  ? O
   O221       1.0     0.571628     0.121143     0.408164    Uiso  ? O
   O222       1.0     0.580872     0.110107     0.382093    Uiso  ? O
   O223       1.0     0.587540     0.121865     0.422228    Uiso  ? O
   O224       1.0     0.614276     0.110695     0.413501    Uiso  ? O
   O225       1.0     0.572928     0.809504     0.527858    Uiso  ? O
   O226       1.0     0.586296     0.783458     0.521621    Uiso  ? O
   O227       1.0     0.563023     0.793149     0.485959    Uiso  ? O
   O228       1.0     0.589704     0.786272     0.474440    Uiso  ? O
   O229       1.0     0.592293     0.829689     0.484607    Uiso  ? O
   O230       1.0     0.618025     0.817211     0.491305    Uiso  ? O
   O231       1.0     0.588799     0.823721     0.522624    Uiso  ? O
   O232       1.0     0.615075     0.812156     0.515004    Uiso  ? O
   O233       1.0     0.490502     0.794650     0.438389    Uiso  ? O
   O234       1.0     0.480000     0.779656     0.415673    Uiso  ? O
   O235       1.0     0.477353     0.824173     0.409463    Uiso  ? O
   O236       1.0     0.484065     0.810370     0.383542    Uiso  ? O
   O237       1.0     0.520731     0.824071     0.404728    Uiso  ? O
   O238       1.0     0.525854     0.797747     0.393526    Uiso  ? O
   O239       1.0     0.512184     0.792682     0.435145    Uiso  ? O
   O240       1.0     0.521688     0.781928     0.408577    Uiso  ? O
   O241       1.0     0.578420     0.877476     0.584300    Uiso  ? O
   O242       1.0     0.593127     0.884400     0.609626    Uiso  ? O
   O243       1.0     0.594084     0.879310     0.567638    Uiso  ? O
   O244       1.0     0.621816     0.887141     0.577524    Uiso  ? O
   O245       1.0     0.599400     0.123419     0.562375    Uiso  ? O
   O246       1.0     0.624935     0.114845     0.575370    Uiso  ? O
   O247       1.0     0.568897     0.121240     0.597558    Uiso  ? O
   O248       1.0     0.596471     0.131696     0.601767    Uiso  ? O
   O249       1.0     0.595303     0.167356     0.513837    Uiso  ? O
   O250       1.0     0.619996     0.181860     0.502611    Uiso  ? O
   O251       1.0     0.589084     0.171776     0.472204    Uiso  ? O
   O252       1.0     0.616052     0.181531     0.480342    Uiso  ? O
   O253       1.0     0.572586     0.189713     0.470843    Uiso  ? O
   O254       1.0     0.590718     0.213358     0.472063    Uiso  ? O
   O255       1.0     0.566019     0.201848     0.511844    Uiso  ? O
   O256       1.0     0.593630     0.209836     0.520216    Uiso  ? O
   O257       1.0     0.489841     0.840167     0.605444    Uiso  ? O
   O258       1.0     0.479484     0.813989     0.615519    Uiso  ? O
   O259       1.0     0.483788     0.804367     0.573685    Uiso  ? O
   O260       1.0     0.477865     0.797665     0.602082    Uiso  ? O
   O261       1.0     0.525429     0.811644     0.578655    Uiso  ? O
   O262       1.0     0.517988     0.785733     0.591650    Uiso  ? O
   O263       1.0     0.527795     0.829752     0.591536    Uiso  ? O
   O264       1.0     0.524015     0.818724     0.619200    Uiso  ? O
   O265       1.0     0.547861     0.887848     0.431047    Uiso  ? O
   O266       1.0     0.550147     0.828281     0.494969    Uiso  ? O
   O267       1.0     0.506986     0.837621     0.439601    Uiso  ? O
   O268       1.0     0.560410     0.112657     0.554805    Uiso  ? O
   O269       1.0     0.554929     0.163328     0.507618    Uiso  ? O
   O270       1.0     0.496834     0.841841     0.560452    Uiso  ? O
   Zn49       1.0     0.572707     0.891873     0.418245    Uiso  ? Zn
   Zn50       1.0     0.601971     0.891276     0.392551    Uiso  ? Zn
   Zn51       1.0     0.573084     0.815214     0.499959    Uiso  ? Zn
   Zn52       1.0     0.602966     0.791730     0.499427    Uiso  ? Zn
   Zn53       1.0     0.501577     0.816583     0.423185    Uiso  ? Zn
   Zn54       1.0     0.497943     0.787981     0.393677    Uiso  ? Zn
   Zn55       1.0     0.579389     0.108146     0.574825    Uiso  ? Zn
   Zn56       1.0     0.611306     0.107704     0.599694    Uiso  ? Zn
   Zn57       1.0     0.576057     0.179790     0.497586    Uiso  ? Zn
   Zn58       1.0     0.607111     0.207208     0.494321    Uiso  ? Zn
   Zn59       1.0     0.501820     0.826474     0.583867    Uiso  ? Zn
   Zn60       1.0     0.504164     0.798645     0.612616    Uiso  ? Zn
   C481       1.0     0.397877     0.132544     0.572344    Uiso  ? C
   C482       1.0     0.389047     0.148398     0.562889    Uiso  ? C
   C483       1.0     0.374193     0.157315     0.572401    Uiso  ? C
   H289       1.0     0.367912     0.150201     0.583738    Uiso  ? H
   C484       1.0     0.365595     0.172323     0.564728    Uiso  ? C
   H290       1.0     0.354960     0.180292     0.572571    Uiso  ? H
   C485       1.0     0.373016     0.181356     0.550402    Uiso  ? C
   H291       1.0     0.366454     0.193621     0.545874    Uiso  ? H
   C486       1.0     0.387639     0.173064     0.540494    Uiso  ? C
   C487       1.0     0.395284     0.156139     0.547070    Uiso  ? C
   H292       1.0     0.406533     0.148620     0.541336    Uiso  ? H
   C488       1.0     0.396363     0.183559     0.525247    Uiso  ? C
   C489       1.0     0.428726     0.133765     0.605549    Uiso  ? C
   C490       1.0     0.439247     0.148104     0.615208    Uiso  ? C
   C491       1.0     0.435562     0.153409     0.632795    Uiso  ? C
   H293       1.0     0.423728     0.147355     0.639022    Uiso  ? H
   C492       1.0     0.446371     0.165689     0.642110    Uiso  ? C
   H294       1.0     0.443113     0.168710     0.656464    Uiso  ? H
   C493       1.0     0.457841     0.176639     0.631990    Uiso  ? C
   H295       1.0     0.465283     0.187610     0.639240    Uiso  ? H
   C494       1.0     0.461652     0.172894     0.613587    Uiso  ? C
   C495       1.0     0.452779     0.158489     0.605208    Uiso  ? C
   H296       1.0     0.454201     0.157693     0.591099    Uiso  ? H
   C496       1.0     0.476364     0.183006     0.603796    Uiso  ? C
   C497       1.0     0.429589     0.878474     0.607069    Uiso  ? C
   C498       1.0     0.439345     0.864273     0.618024    Uiso  ? C
   C499       1.0     0.434556     0.861030     0.636342    Uiso  ? C
   H297       1.0     0.422566     0.867198     0.642267    Uiso  ? H
   C500       1.0     0.442695     0.847266     0.646817    Uiso  ? C
   H298       1.0     0.437329     0.843098     0.659642    Uiso  ? H
   C501       1.0     0.456956     0.837093     0.638784    Uiso  ? C
   H299       1.0     0.462681     0.827100     0.647288    Uiso  ? H
   C502       1.0     0.463892     0.841495     0.621985    Uiso  ? C
   C503       1.0     0.454450     0.854691     0.611198    Uiso  ? C
   H300       1.0     0.459065     0.858549     0.597959    Uiso  ? H
   C504       1.0     0.478474     0.831044     0.613953    Uiso  ? C
   C505       1.0     0.399176     0.872618     0.575848    Uiso  ? C
   C506       1.0     0.391698     0.855964     0.568433    Uiso  ? C
   C507       1.0     0.377895     0.846528     0.577274    Uiso  ? C
   H301       1.0     0.373776     0.851909     0.590957    Uiso  ? H
   C508       1.0     0.370189     0.831536     0.569761    Uiso  ? C
   H302       1.0     0.360007     0.825232     0.577771    Uiso  ? H
   C509       1.0     0.374873     0.825233     0.552511    Uiso  ? C
   H303       1.0     0.368159     0.813713     0.545768    Uiso  ? H
   C510       1.0     0.389823     0.833498     0.543267    Uiso  ? C
   C511       1.0     0.397479     0.849027     0.551320    Uiso  ? C
   H304       1.0     0.408167     0.855723     0.544785    Uiso  ? H
   C512       1.0     0.397813     0.825380     0.526965    Uiso  ? C
   C513       1.0     0.427455     0.214731     0.470601    Uiso  ? C
   C514       1.0     0.435860     0.221385     0.453664    Uiso  ? C
   C515       1.0     0.426891     0.234487     0.443558    Uiso  ? C
   H305       1.0     0.416040     0.241320     0.449053    Uiso  ? H
   C516       1.0     0.432966     0.238693     0.426410    Uiso  ? C
   H306       1.0     0.426693     0.248498     0.417435    Uiso  ? H
   C517       1.0     0.448305     0.230502     0.419122    Uiso  ? C
   H307       1.0     0.452773     0.235384     0.405356    Uiso  ? H
   C518       1.0     0.458456     0.218871     0.429737    Uiso  ? C
   C519       1.0     0.452009     0.213568     0.446848    Uiso  ? C
   H308       1.0     0.460136     0.205144     0.455906    Uiso  ? H
   C520       1.0     0.474724     0.210120     0.421842    Uiso  ? C
   C521       1.0     0.426770     0.214598     0.524879    Uiso  ? C
   C522       1.0     0.434662     0.223569     0.540296    Uiso  ? C
   C523       1.0     0.429455     0.240713     0.546825    Uiso  ? C
   H309       1.0     0.418888     0.247742     0.540496    Uiso  ? H
   C524       1.0     0.438325     0.249148     0.561884    Uiso  ? C
   H310       1.0     0.434969     0.262516     0.565272    Uiso  ? H
   C525       1.0     0.454203     0.240699     0.568814    Uiso  ? C
   H311       1.0     0.462316     0.247740     0.578475    Uiso  ? H
   C526       1.0     0.458525     0.222966     0.563490    Uiso  ? C
   C527       1.0     0.447420     0.214231     0.551003    Uiso  ? C
   H312       1.0     0.450132     0.201097     0.546920    Uiso  ? H
   C528       1.0     0.474455     0.213966     0.571501    Uiso  ? C
   C529       1.0     0.394030     0.181320     0.472697    Uiso  ? C
   C530       1.0     0.387106     0.172475     0.456407    Uiso  ? C
   C531       1.0     0.371542     0.179925     0.447012    Uiso  ? C
   H313       1.0     0.363874     0.190476     0.453303    Uiso  ? H
   C532       1.0     0.364070     0.171007     0.431492    Uiso  ? C
   H314       1.0     0.351717     0.175977     0.425427    Uiso  ? H
   C533       1.0     0.372781     0.156179     0.424831    Uiso  ? C
   H315       1.0     0.367456     0.151124     0.411673    Uiso  ? H
   C534       1.0     0.387976     0.148642     0.432623    Uiso  ? C
   C535       1.0     0.394600     0.156191     0.448710    Uiso  ? C
   H316       1.0     0.406168     0.150129     0.456526    Uiso  ? H
   C536       1.0     0.394767     0.130884     0.425737    Uiso  ? C
   C537       1.0     0.529416     0.215254     0.569293    Uiso  ? C
   C538       1.0     0.543917     0.223413     0.559936    Uiso  ? C
   C539       1.0     0.552407     0.238594     0.566784    Uiso  ? C
   H317       1.0     0.546631     0.245692     0.578326    Uiso  ? H
   C540       1.0     0.569490     0.243823     0.560920    Uiso  ? C
   H318       1.0     0.576164     0.254580     0.567919    Uiso  ? H
   C541       1.0     0.577694     0.234681     0.546669    Uiso  ? C
   H319       1.0     0.590219     0.240149     0.542065    Uiso  ? H
   C542       1.0     0.568377     0.219707     0.538494    Uiso  ? C
   C543       1.0     0.550406     0.215787     0.544922    Uiso  ? C
   H320       1.0     0.543328     0.204695     0.538397    Uiso  ? H
   C544       1.0     0.576480     0.210755     0.523188    Uiso  ? C
   C545       1.0     0.530335     0.183106     0.602846    Uiso  ? C
   C546       1.0     0.548176     0.174973     0.610278    Uiso  ? C
   C547       1.0     0.559932     0.185433     0.622429    Uiso  ? C
   H321       1.0     0.555530     0.198893     0.626729    Uiso  ? H
   C548       1.0     0.576829     0.178466     0.626265    Uiso  ? C
   H322       1.0     0.585743     0.186732     0.634921    Uiso  ? H
   C549       1.0     0.582323     0.162321     0.620812    Uiso  ? C
   H323       1.0     0.596173     0.158251     0.624249    Uiso  ? H
   C550       1.0     0.571083     0.150354     0.610944    Uiso  ? C
   C551       1.0     0.554424     0.158136     0.603846    Uiso  ? C
   H324       1.0     0.547291     0.150163     0.593643    Uiso  ? H
   C552       1.0     0.579251     0.133727     0.603996    Uiso  ? C
   C553       1.0     0.432901     0.118229     0.390864    Uiso  ? C
   C554       1.0     0.445594     0.129375     0.379446    Uiso  ? C
   C555       1.0     0.445316     0.126304     0.359789    Uiso  ? C
   H325       1.0     0.438765     0.115279     0.353644    Uiso  ? H
   C556       1.0     0.458779     0.135214     0.349608    Uiso  ? C
   H326       1.0     0.461871     0.132133     0.335438    Uiso  ? H
   C557       1.0     0.470748     0.148006     0.358171    Uiso  ? C
   H327       1.0     0.481957     0.152915     0.349256    Uiso  ? H
   C558       1.0     0.469676     0.152748     0.376633    Uiso  ? C
   C559       1.0     0.456415     0.143691     0.386918    Uiso  ? C
   H328       1.0     0.454554     0.146902     0.401391    Uiso  ? H
   C560       1.0     0.481036     0.167208     0.385593    Uiso  ? C
   C561       1.0     0.394273     0.869447     0.428367    Uiso  ? C
   C562       1.0     0.385729     0.855694     0.440262    Uiso  ? C
   C563       1.0     0.366999     0.852128     0.438481    Uiso  ? C
   H329       1.0     0.357760     0.857177     0.427501    Uiso  ? H
   C564       1.0     0.358268     0.841849     0.452028    Uiso  ? C
   H330       1.0     0.343756     0.841212     0.450219    Uiso  ? H
   C565       1.0     0.367257     0.832403     0.465210    Uiso  ? C
   H331       1.0     0.361211     0.824013     0.475075    Uiso  ? H
   C566       1.0     0.386101     0.832665     0.464952    Uiso  ? C
   C567       1.0     0.394770     0.844985     0.453293    Uiso  ? C
   H332       1.0     0.408502     0.847891     0.454017    Uiso  ? H
   C568       1.0     0.396565     0.823462     0.480300    Uiso  ? C
   C569       1.0     0.426546     0.793746     0.537223    Uiso  ? C
   C570       1.0     0.431604     0.790532     0.556400    Uiso  ? C
   C571       1.0     0.418007     0.785777     0.569035    Uiso  ? C
   H333       1.0     0.404881     0.783460     0.564861    Uiso  ? H
   C572       1.0     0.422982     0.783594     0.587183    Uiso  ? C
   H334       1.0     0.412222     0.777855     0.596905    Uiso  ? H
   C573       1.0     0.440799     0.788033     0.593116    Uiso  ? C
   H335       1.0     0.443906     0.788581     0.607285    Uiso  ? H
   C574       1.0     0.454253     0.792762     0.580031    Uiso  ? C
   C575       1.0     0.449151     0.793511     0.562157    Uiso  ? C
   H336       1.0     0.459304     0.797162     0.552657    Uiso  ? H
   C576       1.0     0.473387     0.797563     0.585333    Uiso  ? C
   O271       1.0     0.415209     0.130396     0.571588    Uiso  ? O
   O272       1.0     0.388207     0.123605     0.583658    Uiso  ? O
   O273       1.0     0.430909     0.132526     0.588182    Uiso  ? O
   O274       1.0     0.417297     0.123277     0.613649    Uiso  ? O
   O275       1.0     0.438146     0.886222     0.594536    Uiso  ? O
   O276       1.0     0.412819     0.882378     0.610122    Uiso  ? O
   O277       1.0     0.407646     0.882811     0.565223    Uiso  ? O
   O278       1.0     0.395769     0.876146     0.592664    Uiso  ? O
   O279       1.0     0.436714     0.207695     0.483272    Uiso  ? O
   O280       1.0     0.410366     0.212424     0.471505    Uiso  ? O
   O281       1.0     0.428583     0.197612     0.523237    Uiso  ? O
   O282       1.0     0.417400     0.223882     0.513994    Uiso  ? O
   O283       1.0     0.413622     0.182540     0.522875    Uiso  ? O
   O284       1.0     0.386667     0.192290     0.514606    Uiso  ? O
   O285       1.0     0.405573     0.173056     0.482109    Uiso  ? O
   O286       1.0     0.394442     0.198117     0.473123    Uiso  ? O
   O287       1.0     0.517883     0.204321     0.560683    Uiso  ? O
   O288       1.0     0.529188     0.215551     0.586589    Uiso  ? O
   O289       1.0     0.518747     0.173089     0.593841    Uiso  ? O
   O290       1.0     0.529517     0.200050     0.603382    Uiso  ? O
   O291       1.0     0.476844     0.181574     0.586164    Uiso  ? O
   O292       1.0     0.487440     0.192952     0.612022    Uiso  ? O
   O293       1.0     0.475920     0.196702     0.570394    Uiso  ? O
   O294       1.0     0.487000     0.223618     0.579094    Uiso  ? O
   O295       1.0     0.435657     0.118168     0.407605    Uiso  ? O
   O296       1.0     0.420358     0.108529     0.383485    Uiso  ? O
   O297       1.0     0.404104     0.120079     0.435785    Uiso  ? O
   O298       1.0     0.392127     0.126993     0.409483    Uiso  ? O
   O299       1.0     0.411339     0.871243     0.428470    Uiso  ? O
   O300       1.0     0.386059     0.880752     0.417948    Uiso  ? O
   O301       1.0     0.428068     0.871398     0.412939    Uiso  ? O
   O302       1.0     0.418419     0.882963     0.387511    Uiso  ? O
   O303       1.0     0.413079     0.827295     0.483230    Uiso  ? O
   O304       1.0     0.388139     0.811902     0.490195    Uiso  ? O
   O305       1.0     0.414733     0.825761     0.524455    Uiso  ? O
   O306       1.0     0.388220     0.815178     0.517364    Uiso  ? O
   O307       1.0     0.431205     0.808475     0.530068    Uiso  ? O
   O308       1.0     0.413675     0.784765     0.530120    Uiso  ? O
   O309       1.0     0.444561     0.796170     0.492204    Uiso  ? O
   O310       1.0     0.419447     0.781692     0.485215    Uiso  ? O
   O311       1.0     0.522484     0.170965     0.407545    Uiso  ? O
   O312       1.0     0.515520     0.183028     0.380096    Uiso  ? O
   O313       1.0     0.526656     0.189305     0.419364    Uiso  ? O
   O314       1.0     0.520409     0.214701     0.404127    Uiso  ? O
   O315       1.0     0.485891     0.202198     0.432267    Uiso  ? O
   O316       1.0     0.476076     0.208344     0.404082    Uiso  ? O
   O317       1.0     0.482675     0.165992     0.402686    Uiso  ? O
   O318       1.0     0.489485     0.179994     0.376770    Uiso  ? O
   O319       1.0     0.444611     0.103265     0.550735    Uiso  ? O
   O320       1.0     0.450606     0.169134     0.497955    Uiso  ? O
   O321       1.0     0.502789     0.165698     0.551387    Uiso  ? O
   O322       1.0     0.439048     0.103831     0.451296    Uiso  ? O
   O323       1.0     0.451393     0.839502     0.497096    Uiso  ? O
   O324       1.0     0.494358     0.167602     0.445367    Uiso  ? O
   Zn61       1.0     0.428207     0.106286     0.573957    Uiso  ? Zn
   Zn62       1.0     0.396130     0.106496     0.603370    Uiso  ? Zn
   Zn63       1.0     0.427447     0.186414     0.497563    Uiso  ? Zn
   Zn64       1.0     0.396544     0.214146     0.496915    Uiso  ? Zn
   Zn65       1.0     0.502188     0.184481     0.573263    Uiso  ? Zn
   Zn66       1.0     0.503861     0.213134     0.600073    Uiso  ? Zn
   Zn67       1.0     0.423196     0.896979     0.428103    Uiso  ? Zn
   Zn68       1.0     0.395860     0.102560     0.396683    Uiso  ? Zn
   Zn69       1.0     0.431203     0.817630     0.502067    Uiso  ? Zn
   Zn70       1.0     0.399429     0.789695     0.504651    Uiso  ? Zn
   Zn71       1.0     0.499305     0.181093     0.421381    Uiso  ? Zn
   Zn72       1.0     0.499660     0.205339     0.390081    Uiso  ? Zn
   H337       1.0     0.461909     0.174007     0.491337    Uiso  ? H
   H338       1.0     0.453002     0.159280     0.506252    Uiso  ? H
   H339       1.0     0.549734     0.835092     0.483637    Uiso  ? H
   H340       1.0     0.538670     0.825195     0.501589    Uiso  ? H
   H341       1.0     0.506408     0.840128     0.551615    Uiso  ? H
   H342       1.0     0.487619     0.850995     0.558206    Uiso  ? H
   H343       1.0     0.562896     0.108551     0.542350    Uiso  ? H
   H344       1.0     0.550351     0.121371     0.554693    Uiso  ? H
   H345       1.0     0.488610     0.155922     0.446423    Uiso  ? H
   H346       1.0     0.498178     0.173529     0.457206    Uiso  ? H
   H347       1.0     0.548624     0.880676     0.441905    Uiso  ? H
   H348       1.0     0.536904     0.893297     0.425494    Uiso  ? H
   H349       1.0     0.551898     0.161396     0.520096    Uiso  ? H
   H350       1.0     0.548982     0.156106     0.498134    Uiso  ? H
   H351       1.0     0.433695     0.108422     0.463036    Uiso  ? H
   H352       1.0     0.452532     0.102799     0.449777    Uiso  ? H
   H353       1.0     0.516039     0.831362     0.445913    Uiso  ? H
   H354       1.0     0.496749     0.842700     0.446383    Uiso  ? H
   H355       1.0     0.463642     0.833690     0.496930    Uiso  ? H
   H356       1.0     0.451508     0.852097     0.492543    Uiso  ? H
   H357       1.0     0.506746     0.153617     0.554518    Uiso  ? H
   H358       1.0     0.505135     0.169342     0.539028    Uiso  ? H
   H359       1.0     0.449742     0.114113     0.545504    Uiso  ? H
   H360       1.0     0.449278     0.889052     0.546842    Uiso  ? H
   C577       1.0     0.432122     0.396046     0.142161    Uiso  ? C
   C578       1.0     0.440743     0.388493     0.158830    Uiso  ? C
   C579       1.0     0.433201     0.373731     0.167272    Uiso  ? C
   H361       1.0     0.422429     0.365759     0.161581    Uiso  ? H
   C580       1.0     0.440861     0.368958     0.184711    Uiso  ? C
   H362       1.0     0.432976     0.358551     0.192015    Uiso  ? H
   C581       1.0     0.455503     0.378878     0.192603    Uiso  ? C
   H363       1.0     0.460736     0.374337     0.206054    Uiso  ? H
   C582       1.0     0.463882     0.393513     0.182630    Uiso  ? C
   C583       1.0     0.457017     0.397577     0.164964    Uiso  ? C
   H364       1.0     0.462077     0.407944     0.155996    Uiso  ? H
   C584       1.0     0.480449     0.403600     0.189767    Uiso  ? C
   C585       1.0     0.398179     0.421728     0.141861    Uiso  ? C
   C586       1.0     0.392474     0.430939     0.158358    Uiso  ? C
   C587       1.0     0.383069     0.421439     0.171966    Uiso  ? C
   H365       1.0     0.378554     0.407751     0.169642    Uiso  ? H
   C588       1.0     0.377696     0.429674     0.188834    Uiso  ? C
   H366       1.0     0.369505     0.422208     0.198092    Uiso  ? H
   C589       1.0     0.382625     0.447287     0.192181    Uiso  ? C
   H367       1.0     0.379132     0.453230     0.204571    Uiso  ? H
   C590       1.0     0.392943     0.457371     0.179225    Uiso  ? C
   C591       1.0     0.396605     0.448914     0.161974    Uiso  ? C
   H368       1.0     0.404826     0.456843     0.151942    Uiso  ? H
   C592       1.0     0.400923     0.474955     0.184392    Uiso  ? C
   C593       1.0     0.391942     0.431425     0.897201    Uiso  ? C
   C594       1.0     0.382273     0.442956     0.883975    Uiso  ? C
   C595       1.0     0.363354     0.439624     0.881223    Uiso  ? C
   H369       1.0     0.356227     0.429039     0.889362    Uiso  ? H
   C596       1.0     0.353162     0.449656     0.868779    Uiso  ? C
   H370       1.0     0.339269     0.446850     0.867120    Uiso  ? H
   C597       1.0     0.361828     0.460075     0.855662    Uiso  ? C
   H371       1.0     0.354824     0.465513     0.844173    Uiso  ? H
   C598       1.0     0.380370     0.463269     0.857301    Uiso  ? C
   C599       1.0     0.390590     0.455424     0.871952    Uiso  ? C
   H372       1.0     0.405451     0.457073     0.871960    Uiso  ? H
   C600       1.0     0.390536     0.473778     0.843588    Uiso  ? C
   C601       1.0     0.426925     0.385809     0.885951    Uiso  ? C
   C602       1.0     0.436431     0.375351     0.872403    Uiso  ? C
   C603       1.0     0.430531     0.358135     0.869153    Uiso  ? C
   H373       1.0     0.420977     0.351798     0.878194    Uiso  ? H
   C604       1.0     0.437922     0.347704     0.856067    Uiso  ? C
   H374       1.0     0.432259     0.334408     0.853085    Uiso  ? H
   C605       1.0     0.451800     0.354923     0.844847    Uiso  ? C
   H375       1.0     0.457794     0.346036     0.834145    Uiso  ? H
   C606       1.0     0.458183     0.372506     0.846283    Uiso  ? C
   C607       1.0     0.451246     0.383251     0.860797    Uiso  ? C
   H376       1.0     0.455828     0.397713     0.862715    Uiso  ? H
   C608       1.0     0.473580     0.380006     0.836401    Uiso  ? C
   C609       1.0     0.528749     0.442818     0.214058    Uiso  ? C
   C610       1.0     0.539297     0.458000     0.222001    Uiso  ? C
   C611       1.0     0.536637     0.463957     0.239976    Uiso  ? C
   H377       1.0     0.527813     0.456216     0.248913    Uiso  ? H
   C612       1.0     0.545920     0.479711     0.246488    Uiso  ? C
   H378       1.0     0.543497     0.483471     0.260327    Uiso  ? H
   C613       1.0     0.557457     0.489464     0.234042    Uiso  ? C
   H379       1.0     0.563497     0.502526     0.239216    Uiso  ? H
   C614       1.0     0.560471     0.483121     0.216237    Uiso  ? C
   C615       1.0     0.552126     0.466679     0.210748    Uiso  ? C
   H380       1.0     0.555050     0.461760     0.196068    Uiso  ? H
   C616       1.0     0.573570     0.493049     0.204622    Uiso  ? C
   C617       1.0     0.485582     0.439177     0.213417    Uiso  ? C
   C618       1.0     0.471714     0.450143     0.222434    Uiso  ? C
   C619       1.0     0.468624     0.447401     0.240921    Uiso  ? C
   H381       1.0     0.476628     0.437571     0.247799    Uiso  ? H
   C620       1.0     0.453695     0.455844     0.249917    Uiso  ? C
   H382       1.0     0.451886     0.453926     0.263895    Uiso  ? H
   C621       1.0     0.443823     0.468376     0.240110    Uiso  ? C
   H383       1.0     0.431951     0.475145     0.247497    Uiso  ? H
   C622       1.0     0.446787     0.471863     0.221409    Uiso  ? C
   C623       1.0     0.461161     0.462851     0.212577    Uiso  ? C
   H384       1.0     0.463259     0.464232     0.198117    Uiso  ? H
   C624       1.0     0.434130     0.483645     0.211982    Uiso  ? C
   C625       1.0     0.538950     0.399130     0.187580    Uiso  ? C
   C626       1.0     0.555993     0.391317     0.180785    Uiso  ? C
   C627       1.0     0.565399     0.378870     0.190752    Uiso  ? C
   H385       1.0     0.560410     0.374739     0.203548    Uiso  ? H
   C628       1.0     0.580130     0.369581     0.182257    Uiso  ? C
   H386       1.0     0.587300     0.357933     0.189366    Uiso  ? H
   C629       1.0     0.585814     0.373716     0.164452    Uiso  ? C
   H387       1.0     0.598185     0.368795     0.159761    Uiso  ? H
   C630       1.0     0.575939     0.386828     0.154454    Uiso  ? C
   C631       1.0     0.561713     0.395865     0.162982    Uiso  ? C
   H388       1.0     0.553982     0.405884     0.155012    Uiso  ? H
   C632       1.0     0.582910     0.393992     0.137664    Uiso  ? C
   C633       1.0     0.436781     0.528505     0.211704    Uiso  ? C
   C634       1.0     0.451223     0.541042     0.219492    Uiso  ? C
   C635       1.0     0.453515     0.541228     0.238268    Uiso  ? C
   H389       1.0     0.444329     0.533017     0.246773    Uiso  ? H
   C636       1.0     0.466127     0.553582     0.246018    Uiso  ? C
   H390       1.0     0.465859     0.554681     0.260515    Uiso  ? H
   C637       1.0     0.477929     0.564461     0.235605    Uiso  ? C
   H391       1.0     0.486304     0.575160     0.241540    Uiso  ? H
   C638       1.0     0.477885     0.561797     0.216905    Uiso  ? C
   C639       1.0     0.463808     0.550396     0.208907    Uiso  ? C
   H392       1.0     0.463497     0.550310     0.194906    Uiso  ? H
   C640       1.0     0.487049     0.575513     0.204033    Uiso  ? C
   C641       1.0     0.395536     0.527660     0.172863    Uiso  ? C
   C642       1.0     0.384866     0.541869     0.163392    Uiso  ? C
   C643       1.0     0.371785     0.551570     0.173153    Uiso  ? C
   H393       1.0     0.368615     0.548998     0.187596    Uiso  ? H
   C644       1.0     0.363058     0.566776     0.164660    Uiso  ? C
   H394       1.0     0.354072     0.574424     0.172672    Uiso  ? H
   C645       1.0     0.369323     0.573187     0.148708    Uiso  ? C
   H395       1.0     0.362168     0.585343     0.145037    Uiso  ? H
   C646       1.0     0.383544     0.563929     0.139277    Uiso  ? C
   C647       1.0     0.391025     0.547809     0.146658    Uiso  ? C
   H396       1.0     0.402652     0.541377     0.139403    Uiso  ? H
   C648       1.0     0.390539     0.572851     0.122165    Uiso  ? C
   C649       1.0     0.610699     0.429583     0.125894    Uiso  ? C
   C650       1.0     0.621323     0.440803     0.140032    Uiso  ? C
   C651       1.0     0.637705     0.434056     0.147169    Uiso  ? C
   H397       1.0     0.645888     0.422299     0.141292    Uiso  ? H
   C652       1.0     0.646932     0.442990     0.161389    Uiso  ? C
   H398       1.0     0.660402     0.438289     0.166271    Uiso  ? H
   C653       1.0     0.638995     0.457975     0.169369    Uiso  ? C
   H399       1.0     0.646678     0.466047     0.178740    Uiso  ? H
   C654       1.0     0.622332     0.464811     0.162174    Uiso  ? C
   C655       1.0     0.614738     0.457293     0.146790    Uiso  ? C
   H400       1.0     0.601262     0.463018     0.142638    Uiso  ? H
   C656       1.0     0.614795     0.482791     0.169654    Uiso  ? C
   C657       1.0     0.574918     0.390878     0.880709    Uiso  ? C
   C658       1.0     0.562821     0.380298     0.868058    Uiso  ? C
   C659       1.0     0.564182     0.361852     0.866380    Uiso  ? C
   H401       1.0     0.575270     0.354807     0.872665    Uiso  ? H
   C660       1.0     0.553513     0.351858     0.854974    Uiso  ? C
   H402       1.0     0.555324     0.336930     0.855247    Uiso  ? H
   C661       1.0     0.542195     0.360835     0.842882    Uiso  ? C
   H403       1.0     0.532401     0.352409     0.834748    Uiso  ? H
   C662       1.0     0.539732     0.378659     0.844268    Uiso  ? C
   C663       1.0     0.549783     0.388532     0.856793    Uiso  ? C
   H404       1.0     0.549308     0.402861     0.857607    Uiso  ? H
   C664       1.0     0.525402     0.387227     0.832379    Uiso  ? C
   C665       1.0     0.465661     0.411302     0.803552    Uiso  ? C
   C666       1.0     0.446967     0.417312     0.800370    Uiso  ? C
   C667       1.0     0.434214     0.406355     0.792012    Uiso  ? C
   H405       1.0     0.440622     0.394841     0.785791    Uiso  ? H
   C668       1.0     0.416359     0.411849     0.788390    Uiso  ? C
   H406       1.0     0.408433     0.401970     0.781723    Uiso  ? H
   C669       1.0     0.411165     0.428923     0.792955    Uiso  ? C
   H407       1.0     0.398308     0.434844     0.788861    Uiso  ? H
   C670       1.0     0.423515     0.441071     0.801166    Uiso  ? C
   C671       1.0     0.442075     0.436051     0.803796    Uiso  ? C
   H408       1.0     0.451937     0.444502     0.810175    Uiso  ? H
   C672       1.0     0.416937     0.459665     0.806358    Uiso  ? C
   O325       1.0     0.438339     0.410183     0.134546    Uiso  ? O
   O326       1.0     0.417240     0.389271     0.136083    Uiso  ? O
   O327       1.0     0.408595     0.429926     0.131085    Uiso  ? O
   O328       1.0     0.395830     0.404418     0.139377    Uiso  ? O
   O329       1.0     0.405675     0.438322     0.104586    Uiso  ? O
   O330       1.0     0.388007     0.414790     0.898888    Uiso  ? O
   O331       1.0     0.432566     0.402123     0.888977    Uiso  ? O
   O332       1.0     0.414236     0.379242     0.894979    Uiso  ? O
   O333       1.0     0.528379     0.442205     0.196776    Uiso  ? O
   O334       1.0     0.518939     0.432313     0.223624    Uiso  ? O
   O335       1.0     0.488763     0.440719     0.196410    Uiso  ? O
   O336       1.0     0.495097     0.428469     0.223732    Uiso  ? O
   O337       1.0     0.484916     0.419523     0.183933    Uiso  ? O
   O338       1.0     0.490985     0.395461     0.200250    Uiso  ? O
   O339       1.0     0.526716     0.405077     0.176754    Uiso  ? O
   O340       1.0     0.537033     0.400920     0.204568    Uiso  ? O
   O341       1.0     0.438275     0.525947     0.195267    Uiso  ? O
   O342       1.0     0.427130     0.518128     0.221800    Uiso  ? O
   O343       1.0     0.404973     0.516837     0.163526    Uiso  ? O
   O344       1.0     0.396055     0.528014     0.190345    Uiso  ? O
   O345       1.0     0.417408     0.479295     0.178265    Uiso  ? O
   O346       1.0     0.393373     0.485609     0.196628    Uiso  ? O
   O347       1.0     0.433028     0.483283     0.194381    Uiso  ? O
   O348       1.0     0.425907     0.496441     0.220722    Uiso  ? O
   O349       1.0     0.596529     0.436377     0.118427    Uiso  ? O
   O350       1.0     0.615723     0.413930     0.123285    Uiso  ? O
   O351       1.0     0.571808     0.402944     0.126987    Uiso  ? O
   O352       1.0     0.599990     0.391658     0.133002    Uiso  ? O
   O353       1.0     0.573349     0.408345     0.882297    Uiso  ? O
   O354       1.0     0.585940     0.382854     0.890827    Uiso  ? O
   O355       1.0     0.589520     0.423875     0.880836    Uiso  ? O
   O356       1.0     0.616742     0.412582     0.887087    Uiso  ? O
   O357       1.0     0.522080     0.404503     0.833184    Uiso  ? O
   O358       1.0     0.513728     0.376316     0.825630    Uiso  ? O
   O359       1.0     0.483334     0.392585     0.843269    Uiso  ? O
   O360       1.0     0.472150     0.379622     0.819406    Uiso  ? O
   O361       1.0     0.478098     0.422515     0.807723    Uiso  ? O
   O362       1.0     0.468284     0.394208     0.803886    Uiso  ? O
   O363       1.0     0.521250     0.419860     0.816043    Uiso  ? O
   O364       1.0     0.510355     0.406892     0.791648    Uiso  ? O
   O365       1.0     0.592255     0.533760     0.162635    Uiso  ? O
   O366       1.0     0.617099     0.526598     0.177286    Uiso  ? O
   O367       1.0     0.574504     0.531277     0.176763    Uiso  ? O
   O368       1.0     0.588770     0.525934     0.203907    Uiso  ? O
   O369       1.0     0.574507     0.488619     0.187618    Uiso  ? O
   O370       1.0     0.584561     0.504771     0.211464    Uiso  ? O
   O371       1.0     0.609534     0.495143     0.158314    Uiso  ? O
   O372       1.0     0.612241     0.483222     0.186208    Uiso  ? O
   O373       1.0     0.449156     0.441821     0.104077    Uiso  ? O
   O374       1.0     0.511443     0.439754     0.155675    Uiso  ? O
   O375       1.0     0.450963     0.506242     0.160381    Uiso  ? O
   O376       1.0     0.555923     0.439450     0.108669    Uiso  ? O
   O377       1.0     0.491640     0.434831     0.847833    Uiso  ? O
   O378       1.0     0.569919     0.500421     0.142500    Uiso  ? O
   Zn73       1.0     0.428457     0.422461     0.109653    Uiso  ? Zn
   Zn74       1.0     0.397479     0.392658     0.112771    Uiso  ? Zn
   Zn75       1.0     0.510811     0.429048     0.181936    Uiso  ? Zn
   Zn76       1.0     0.511620     0.404944     0.215456    Uiso  ? Zn
   Zn77       1.0     0.427613     0.506442     0.177604    Uiso  ? Zn
   Zn78       1.0     0.400923     0.509103     0.210628    Uiso  ? Zn
   Zn79       1.0     0.577266     0.421627     0.106437    Uiso  ? Zn
   Zn80       1.0     0.608473     0.392329     0.104767    Uiso  ? Zn
   Zn81       1.0     0.495622     0.414944     0.829926    Uiso  ? Zn
   Zn82       1.0     0.495261     0.384932     0.803156    Uiso  ? Zn
   Zn83       1.0     0.583779     0.505966     0.165859    Uiso  ? Zn
   Zn84       1.0     0.610202     0.509433     0.197457    Uiso  ? Zn
   C673       1.0     0.569930     0.608025     0.863291    Uiso  ? C
   C674       1.0     0.559775     0.617830     0.849113    Uiso  ? C
   C675       1.0     0.567357     0.631690     0.838470    Uiso  ? C
   H409       1.0     0.580054     0.638199     0.843818    Uiso  ? H
   C676       1.0     0.560182     0.635993     0.822345    Uiso  ? C
   H410       1.0     0.567204     0.646952     0.815326    Uiso  ? H
   C677       1.0     0.544834     0.627980     0.816472    Uiso  ? C
   H411       1.0     0.539815     0.631698     0.802059    Uiso  ? H
   C678       1.0     0.535842     0.614397     0.826644    Uiso  ? C
   C679       1.0     0.544574     0.608438     0.842607    Uiso  ? C
   H412       1.0     0.539440     0.596272     0.849724    Uiso  ? H
   C680       1.0     0.520219     0.604329     0.820006    Uiso  ? C
   C681       1.0     0.604291     0.577438     0.859762    Uiso  ? C
   C682       1.0     0.609214     0.568975     0.841893    Uiso  ? C
   C683       1.0     0.618273     0.579595     0.828463    Uiso  ? C
   H413       1.0     0.622518     0.594028     0.831144    Uiso  ? H
   C684       1.0     0.623589     0.571484     0.812287    Uiso  ? C
   H414       1.0     0.629161     0.579342     0.801350    Uiso  ? H
   C685       1.0     0.619132     0.553173     0.808412    Uiso  ? C
   H415       1.0     0.622009     0.546928     0.794968    Uiso  ? H
   C686       1.0     0.611464     0.542188     0.822204    Uiso  ? C
   C687       1.0     0.607322     0.550669     0.838662    Uiso  ? C
   H416       1.0     0.600250     0.541876     0.848098    Uiso  ? H
   C688       1.0     0.604006     0.524349     0.816736    Uiso  ? C
   C689       1.0     0.610617     0.582140     0.114535    Uiso  ? C
   C690       1.0     0.620461     0.571725     0.129231    Uiso  ? C
   C691       1.0     0.637457     0.577094     0.135062    Uiso  ? C
   H417       1.0     0.643997     0.589202     0.129943    Uiso  ? H
   C692       1.0     0.645821     0.568647     0.150572    Uiso  ? C
   H418       1.0     0.659254     0.575081     0.155001    Uiso  ? H
   C693       1.0     0.637211     0.554430     0.159558    Uiso  ? C
   H419       1.0     0.642851     0.546621     0.170875    Uiso  ? H
   C694       1.0     0.619235     0.550335     0.154962    Uiso  ? C
   C695       1.0     0.611097     0.558551     0.139710    Uiso  ? C
   H420       1.0     0.598527     0.553018     0.136147    Uiso  ? H
   C696       1.0     0.608940     0.536667     0.165671    Uiso  ? C
   C697       1.0     0.577661     0.611333     0.114123    Uiso  ? C
   C698       1.0     0.566824     0.621085     0.127585    Uiso  ? C
   C699       1.0     0.566148     0.640353     0.127772    Uiso  ? C
   H421       1.0     0.573376     0.646237     0.116860    Uiso  ? H
   C700       1.0     0.555406     0.650389     0.139677    Uiso  ? C
   H422       1.0     0.554428     0.665048     0.140501    Uiso  ? H
   C701       1.0     0.543284     0.641078     0.150062    Uiso  ? C
   H423       1.0     0.534076     0.650150     0.158695    Uiso  ? H
   C702       1.0     0.543478     0.622158     0.150727    Uiso  ? C
   C703       1.0     0.555099     0.611367     0.139716    Uiso  ? C
   H424       1.0     0.553049     0.596530     0.138843    Uiso  ? H
   C704       1.0     0.529744     0.612757     0.162067    Uiso  ? C
   C705       1.0     0.470387     0.565688     0.789530    Uiso  ? C
   C706       1.0     0.454759     0.553768     0.782804    Uiso  ? C
   C707       1.0     0.451511     0.552497     0.764260    Uiso  ? C
   H425       1.0     0.459262     0.561094     0.755315    Uiso  ? H
   C708       1.0     0.438194     0.541534     0.757205    Uiso  ? C
   H426       1.0     0.436409     0.542305     0.742509    Uiso  ? H
   C709       1.0     0.427897     0.531174     0.768510    Uiso  ? C
   H427       1.0     0.420473     0.520481     0.762938    Uiso  ? H
   C710       1.0     0.430237     0.532530     0.787474    Uiso  ? C
   C711       1.0     0.442966     0.545022     0.794676    Uiso  ? C
   H428       1.0     0.441769     0.548958     0.808713    Uiso  ? H
   C712       1.0     0.419885     0.518736     0.799147    Uiso  ? C
   C713       1.0     0.513560     0.560518     0.782327    Uiso  ? C
   C714       1.0     0.524008     0.546154     0.772655    Uiso  ? C
   C715       1.0     0.527457     0.546462     0.753766    Uiso  ? C
   H429       1.0     0.520956     0.556884     0.744952    Uiso  ? H
   C716       1.0     0.539502     0.534710     0.745953    Uiso  ? C
   H430       1.0     0.540565     0.535666     0.731045    Uiso  ? H
   C717       1.0     0.548387     0.521332     0.756540    Uiso  ? C
   H431       1.0     0.556813     0.511624     0.751268    Uiso  ? H
   C718       1.0     0.547339     0.522175     0.775438    Uiso  ? C
   C719       1.0     0.534108     0.533731     0.783797    Uiso  ? C
   H432       1.0     0.531369     0.532935     0.798167    Uiso  ? H
   C720       1.0     0.560313     0.511736     0.786843    Uiso  ? C
   C721       1.0     0.466235     0.599601     0.814892    Uiso  ? C
   C722       1.0     0.450608     0.609187     0.823792    Uiso  ? C
   C723       1.0     0.442996     0.625477     0.816650    Uiso  ? C
   H433       1.0     0.448963     0.632010     0.804614    Uiso  ? H
   C724       1.0     0.428493     0.634012     0.825280    Uiso  ? C
   H434       1.0     0.424124     0.648747     0.822868    Uiso  ? H
   C725       1.0     0.421638     0.626121     0.841197    Uiso  ? C
   H435       1.0     0.410500     0.633635     0.847043    Uiso  ? H
   C726       1.0     0.428938     0.609854     0.848364    Uiso  ? C
   C727       1.0     0.443388     0.601791     0.839672    Uiso  ? C
   H436       1.0     0.451160     0.592118     0.846661    Uiso  ? H
   C728       1.0     0.419727     0.601512     0.864362    Uiso  ? C
   C729       1.0     0.567630     0.468674     0.792981    Uiso  ? C
   C730       1.0     0.556996     0.453791     0.785306    Uiso  ? C
   C731       1.0     0.558671     0.449638     0.766685    Uiso  ? C
   H437       1.0     0.567379     0.457431     0.757963    Uiso  ? H
   C732       1.0     0.546357     0.437592     0.758404    Uiso  ? C
   H438       1.0     0.546688     0.436052     0.744134    Uiso  ? H
   C733       1.0     0.534692     0.426800     0.769045    Uiso  ? C
   H439       1.0     0.525866     0.417164     0.761831    Uiso  ? H
   C734       1.0     0.532906     0.430156     0.787863    Uiso  ? C
   C735       1.0     0.542654     0.445045     0.795144    Uiso  ? C
   H440       1.0     0.540506     0.446108     0.809165    Uiso  ? H
   C736       1.0     0.520097     0.419271     0.798735    Uiso  ? C
   C737       1.0     0.597842     0.468896     0.825980    Uiso  ? C
   C738       1.0     0.609485     0.456330     0.836926    Uiso  ? C
   C739       1.0     0.628026     0.455867     0.834032    Uiso  ? C
   H441       1.0     0.634300     0.463504     0.823845    Uiso  ? H
   C740       1.0     0.639277     0.447435     0.847202    Uiso  ? C
   H442       1.0     0.653987     0.447293     0.846038    Uiso  ? H
   C741       1.0     0.632193     0.436970     0.860671    Uiso  ? C
   H443       1.0     0.642259     0.427695     0.867709    Uiso  ? H
   C742       1.0     0.613053     0.435237     0.863099    Uiso  ? C
   C743       1.0     0.601900     0.445896     0.851537    Uiso  ? C
   H444       1.0     0.587139     0.446097     0.852740    Uiso  ? H
   C744       1.0     0.606411     0.422740     0.877280    Uiso  ? C
   C745       1.0     0.386989     0.568691     0.872795    Uiso  ? C
   C746       1.0     0.377927     0.558844     0.858061    Uiso  ? C
   C747       1.0     0.359008     0.560639     0.853831    Uiso  ? C
   H445       1.0     0.353020     0.573487     0.858693    Uiso  ? H
   C748       1.0     0.350718     0.551187     0.840825    Uiso  ? C
   H446       1.0     0.337033     0.553677     0.836203    Uiso  ? H
   C749       1.0     0.359995     0.536863     0.832295    Uiso  ? C
   H447       1.0     0.353723     0.528907     0.821500    Uiso  ? H
   C750       1.0     0.378754     0.533175     0.836883    Uiso  ? C
   C751       1.0     0.386852     0.545253     0.849163    Uiso  ? C
   H448       1.0     0.401528     0.543054     0.850886    Uiso  ? H
   C752       1.0     0.387622     0.516172     0.830009    Uiso  ? C
   C753       1.0     0.420660     0.607971     0.122300    Uiso  ? C
   C754       1.0     0.428847     0.617303     0.138088    Uiso  ? C
   C755       1.0     0.419515     0.631454     0.147274    Uiso  ? C
   H449       1.0     0.406637     0.635679     0.142509    Uiso  ? H
   C756       1.0     0.426099     0.638174     0.164410    Uiso  ? C
   H450       1.0     0.416481     0.646966     0.171485    Uiso  ? H
   C757       1.0     0.442786     0.632098     0.171287    Uiso  ? C
   H451       1.0     0.448081     0.636773     0.183727    Uiso  ? H
   C758       1.0     0.452833     0.618936     0.161674    Uiso  ? C
   C759       1.0     0.445832     0.612210     0.145470    Uiso  ? C
   H452       1.0     0.452098     0.600041     0.137982    Uiso  ? H
   C760       1.0     0.470292     0.612270     0.168695    Uiso  ? C
   C761       1.0     0.529061     0.584180     0.196002    Uiso  ? C
   C762       1.0     0.543648     0.573898     0.205625    Uiso  ? C
   C763       1.0     0.548847     0.577546     0.222810    Uiso  ? C
   H453       1.0     0.542467     0.589376     0.227855    Uiso  ? H
   C764       1.0     0.562790     0.568874     0.231425    Uiso  ? C
   H454       1.0     0.568225     0.572885     0.243930    Uiso  ? H
   C765       1.0     0.573345     0.555664     0.221793    Uiso  ? C
   H455       1.0     0.585677     0.549529     0.227548    Uiso  ? H
   C766       1.0     0.567604     0.550112     0.204704    Uiso  ? C
   C767       1.0     0.552797     0.559310     0.196583    Uiso  ? C
   H456       1.0     0.549353     0.555897     0.182625    Uiso  ? H
   C768       1.0     0.576751     0.534967     0.194388    Uiso  ? C
   O379       1.0     0.562627     0.599585     0.876020    Uiso  ? O
   O380       1.0     0.587334     0.609624     0.863312    Uiso  ? O
   O381       1.0     0.595971     0.568730     0.871328    Uiso  ? O
   O382       1.0     0.604525     0.595054     0.861179    Uiso  ? O
   O383       1.0     0.593704     0.579445     0.112405    Uiso  ? O
   O384       1.0     0.618517     0.591447     0.102928    Uiso  ? O
   O385       1.0     0.576394     0.594208     0.112765    Uiso  ? O
   O386       1.0     0.586646     0.621079     0.103273    Uiso  ? O
   O387       1.0     0.472781     0.566671     0.806870    Uiso  ? O
   O388       1.0     0.479728     0.574864     0.778021    Uiso  ? O
   O389       1.0     0.514440     0.560157     0.800035    Uiso  ? O
   O390       1.0     0.504423     0.573571     0.774630    Uiso  ? O
   O391       1.0     0.510961     0.594295     0.830138    Uiso  ? O
   O392       1.0     0.516857     0.603584     0.803515    Uiso  ? O
   O393       1.0     0.472936     0.585027     0.821410    Uiso  ? O
   O394       1.0     0.473759     0.607747     0.802115    Uiso  ? O
   O395       1.0     0.567795     0.471290     0.810358    Uiso  ? O
   O396       1.0     0.575846     0.479110     0.782827    Uiso  ? O
   O397       1.0     0.581420     0.472174     0.829917    Uiso  ? O
   O398       1.0     0.605210     0.476578     0.812470    Uiso  ? O
   O399       1.0     0.596605     0.513965     0.827866    Uiso  ? O
   O400       1.0     0.602708     0.520947     0.799872    Uiso  ? O
   O401       1.0     0.558278     0.511193     0.804345    Uiso  ? O
   O402       1.0     0.574143     0.503768     0.779879    Uiso  ? O
   O403       1.0     0.403827     0.567974     0.874024    Uiso  ? O
   O404       1.0     0.378834     0.581382     0.881654    Uiso  ? O
   O405       1.0     0.423371     0.585708     0.868312    Uiso  ? O
   O406       1.0     0.409590     0.611090     0.874260    Uiso  ? O
   O407       1.0     0.430385     0.597542     0.112140    Uiso  ? O
   O408       1.0     0.403343     0.607371     0.120229    Uiso  ? O
   O409       1.0     0.399083     0.563268     0.110881    Uiso  ? O
   O410       1.0     0.390142     0.589627     0.120018    Uiso  ? O
   O411       1.0     0.483673     0.607417     0.158181    Uiso  ? O
   O412       1.0     0.474399     0.613132     0.185346    Uiso  ? O
   O413       1.0     0.527807     0.595452     0.161071    Uiso  ? O
   O414       1.0     0.519925     0.621850     0.173505    Uiso  ? O
   O415       1.0     0.525828     0.582557     0.178887    Uiso  ? O
   O416       1.0     0.517298     0.592419     0.205807    Uiso  ? O
   O417       1.0     0.486420     0.573067     0.186796    Uiso  ? O
   O418       1.0     0.494696     0.590064     0.210280    Uiso  ? O
   O419       1.0     0.406552     0.480044     0.846748    Uiso  ? O
   O420       1.0     0.383195     0.476242     0.827901    Uiso  ? O
   O421       1.0     0.429136     0.471640     0.810146    Uiso  ? O
   O422       1.0     0.400515     0.463736     0.804675    Uiso  ? O
   O423       1.0     0.420079     0.517885     0.816202    Uiso  ? O
   O424       1.0     0.410037     0.506418     0.791146    Uiso  ? O
   O425       1.0     0.404748     0.515017     0.830970    Uiso  ? O
   O426       1.0     0.378706     0.505432     0.820883    Uiso  ? O
   O427       1.0     0.556866     0.560556     0.888783    Uiso  ? O
   O428       1.0     0.508861     0.550620     0.832955    Uiso  ? O
   O429       1.0     0.554807     0.510430     0.837249    Uiso  ? O
   O430       1.0     0.439923     0.553711     0.897581    Uiso  ? O
   O431       1.0     0.493336     0.566785     0.144409    Uiso  ? O
   O432       1.0     0.446410     0.497228     0.844647    Uiso  ? O
   Zn85       1.0     0.578920     0.579792     0.888812    Uiso  ? Zn
   Zn86       1.0     0.604885     0.609779     0.885918    Uiso  ? Zn
   Zn87       1.0     0.498864     0.573109     0.818026    Uiso  ? Zn
   Zn88       1.0     0.496145     0.599877     0.785145    Uiso  ? Zn
   Zn89       1.0     0.574033     0.498420     0.821662    Uiso  ? Zn
   Zn90       1.0     0.599156     0.493758     0.791143    Uiso  ? Zn
   Zn91       1.0     0.420375     0.574350     0.895536    Uiso  ? Zn
   Zn92       1.0     0.390063     0.602764     0.894946    Uiso  ? Zn
   Zn93       1.0     0.500202     0.585251     0.165030    Uiso  ? Zn
   Zn94       1.0     0.500962     0.614205     0.193980    Uiso  ? Zn
   Zn95       1.0     0.423602     0.493735     0.829034    Uiso  ? Zn
   Zn96       1.0     0.390677     0.488100     0.801853    Uiso  ? Zn
   H457       1.0     0.520223     0.545516     0.830175    Uiso  ? H
   H458       1.0     0.500251     0.542909     0.839580    Uiso  ? H
   H459       1.0     0.502819     0.449720     0.152282    Uiso  ? H
   H460       1.0     0.517526     0.433613     0.145612    Uiso  ? H
   H461       1.0     0.568151     0.511918     0.135908    Uiso  ? H
   H462       1.0     0.559782     0.491709     0.142786    Uiso  ? H
   H463       1.0     0.543226     0.436671     0.105103    Uiso  ? H
   H464       1.0     0.556614     0.445520     0.121124    Uiso  ? H
   H465       1.0     0.458234     0.496892     0.838624    Uiso  ? H
   H466       1.0     0.443931     0.498608     0.857590    Uiso  ? H
   H467       1.0     0.460322     0.439734     0.111762    Uiso  ? H
   H468       1.0     0.449186     0.447499     0.892783    Uiso  ? H
   H469       1.0     0.481053     0.441380     0.847337    Uiso  ? H
   H470       1.0     0.502548     0.437053     0.853805    Uiso  ? H
   H471       1.0     0.439846     0.550180     0.110043    Uiso  ? H
   H472       1.0     0.448479     0.552155     0.887307    Uiso  ? H
   H473       1.0     0.456704     0.495779     0.155978    Uiso  ? H
   H474       1.0     0.455344     0.517553     0.155696    Uiso  ? H
   H475       1.0     0.485305     0.570697     0.134824    Uiso  ? H
   H476       1.0     0.496952     0.554527     0.146654    Uiso  ? H
   H477       1.0     0.544035     0.503734     0.840276    Uiso  ? H
   H478       1.0     0.557167     0.521788     0.843672    Uiso  ? H
   H479       1.0     0.546114     0.564600     0.895462    Uiso  ? H
   H480       1.0     0.557766     0.547547     0.886859    Uiso  ? H
   C769       1.0     0.499031     0.377405     0.242677    Uiso  ? C
   C770       1.0     0.505211     0.361454     0.250644    Uiso  ? C
   C771       1.0     0.527458     0.375385     0.238860    Uiso  ? C
   N1         1.0     0.513039     0.385177     0.234076    Uiso  ? N
   H481       1.0     0.484331     0.381012     0.241947    Uiso  ? H
   H482       1.0     0.497098     0.350012     0.257267    Uiso  ? H
   H483       1.0     0.540981     0.378333     0.235495    Uiso  ? H
   N2         1.0     0.523242     0.360385     0.248901    Uiso  ? N
   C772       1.0     0.535681     0.343835     0.251162    Uiso  ? C
   H484       1.0     0.535965     0.334968     0.238687    Uiso  ? H
   H485       1.0     0.550098     0.348240     0.252127    Uiso  ? H
   C773       1.0     0.531392     0.333928     0.268194    Uiso  ? C
   C774       1.0     0.519299     0.319123     0.267168    Uiso  ? C
   C775       1.0     0.538112     0.339888     0.284962    Uiso  ? C
   C776       1.0     0.517449     0.307537     0.282563    Uiso  ? C
   H486       1.0     0.512676     0.315473     0.254379    Uiso  ? H
   C777       1.0     0.533991     0.330051     0.300543    Uiso  ? C
   H487       1.0     0.546788     0.352113     0.285913    Uiso  ? H
   C778       1.0     0.525084     0.312863     0.299062    Uiso  ? C
   H488       1.0     0.509645     0.294884     0.281118    Uiso  ? H
   H489       1.0     0.538087     0.335987     0.312457    Uiso  ? H
   C779       1.0     0.521194     0.301013     0.315080    Uiso  ? C
   C780       1.0     0.502917     0.297671     0.319636    Uiso  ? C
   C781       1.0     0.535263     0.297559     0.327558    Uiso  ? C
   C782       1.0     0.499093     0.289066     0.335633    Uiso  ? C
   H490       1.0     0.492128     0.301338     0.309956    Uiso  ? H
   C783       1.0     0.531326     0.288808     0.343525    Uiso  ? C
   H491       1.0     0.549641     0.301410     0.323657    Uiso  ? H
   C784       1.0     0.513223     0.284294     0.347813    Uiso  ? C
   H492       1.0     0.485001     0.286068     0.337212    Uiso  ? H
   H493       1.0     0.542582     0.283681     0.351128    Uiso  ? H
   C785       1.0     0.509462     0.274539     0.365327    Uiso  ? C
   H494       1.0     0.521547     0.276983     0.374307    Uiso  ? H
   H495       1.0     0.498596     0.281406     0.372473    Uiso  ? H
   N3         1.0     0.504798     0.255117     0.363477    Uiso  ? N
   C786       1.0     0.506033     0.244819     0.348205    Uiso  ? C
   C787       1.0     0.501392     0.244886     0.376974    Uiso  ? C
   C788       1.0     0.502531     0.227892     0.354519    Uiso  ? C
   H496       1.0     0.509476     0.250911     0.334885    Uiso  ? H
   H497       1.0     0.502165     0.248853     0.391292    Uiso  ? H
   H498       1.0     0.506194     0.216253     0.346818    Uiso  ? H
   N4         1.0     0.500019     0.227320     0.372091    Uiso  ? N
   C789       1.0     0.503385     0.774221     0.356213    Uiso  ? C
   C790       1.0     0.506965     0.757619     0.347888    Uiso  ? C
   C791       1.0     0.495970     0.752469     0.373803    Uiso  ? C
   N5         1.0     0.496433     0.771282     0.372632    Uiso  ? N
   H499       1.0     0.509757     0.787169     0.352723    Uiso  ? H
   H500       1.0     0.514412     0.753509     0.335597    Uiso  ? H
   H501       1.0     0.494349     0.744589     0.386319    Uiso  ? H
   N6         1.0     0.501352     0.744188     0.358691    Uiso  ? N
   C792       1.0     0.507475     0.725008     0.357075    Uiso  ? C
   H502       1.0     0.522418     0.723349     0.361618    Uiso  ? H
   H503       1.0     0.500526     0.716386     0.367188    Uiso  ? H
   C793       1.0     0.505006     0.718887     0.337186    Uiso  ? C
   C794       1.0     0.520348     0.716466     0.325758    Uiso  ? C
   C795       1.0     0.488158     0.710900     0.332073    Uiso  ? C
   C796       1.0     0.518610     0.709065     0.308319    Uiso  ? C
   H504       1.0     0.533811     0.721101     0.330118    Uiso  ? H
   C797       1.0     0.487475     0.700429     0.316434    Uiso  ? C
   H505       1.0     0.477288     0.710023     0.341151    Uiso  ? H
   C798       1.0     0.502679     0.700242     0.303724    Uiso  ? C
   H506       1.0     0.529983     0.707584     0.299073    Uiso  ? H
   H507       1.0     0.475529     0.693409     0.313775    Uiso  ? H
   C799       1.0     0.499659     0.693698     0.284685    Uiso  ? C
   C800       1.0     0.499802     0.706012     0.269818    Uiso  ? C
   C801       1.0     0.494973     0.675090     0.282344    Uiso  ? C
   C802       1.0     0.492326     0.699740     0.253475    Uiso  ? C
   H508       1.0     0.503047     0.721048     0.271972    Uiso  ? H
   C803       1.0     0.487295     0.669006     0.265789    Uiso  ? C
   H509       1.0     0.493784     0.666616     0.294359    Uiso  ? H
   C804       1.0     0.486623     0.681239     0.250793    Uiso  ? C
   H510       1.0     0.492668     0.708613     0.241913    Uiso  ? H
   H511       1.0     0.482126     0.655150     0.264578    Uiso  ? H
   C805       1.0     0.477006     0.675145     0.233423    Uiso  ? C
   H512       1.0     0.463185     0.670016     0.235711    Uiso  ? H
   H513       1.0     0.476513     0.686186     0.223358    Uiso  ? H
   N7         1.0     0.488784     0.660270     0.224955    Uiso  ? N
   C806       1.0     0.506666     0.662660     0.222453    Uiso  ? C
   C807       1.0     0.483655     0.645489     0.215296    Uiso  ? C
   C808       1.0     0.512516     0.647679     0.212976    Uiso  ? C
   H514       1.0     0.515014     0.673245     0.227885    Uiso  ? H
   H515       1.0     0.470134     0.643524     0.211156    Uiso  ? H
   H516       1.0     0.526252     0.646232     0.209602    Uiso  ? H
   N8         1.0     0.498630     0.636476     0.208147    Uiso  ? N
   C809       1.0     0.525549     0.771090     0.637730    Uiso  ? C
   C810       1.0     0.524381     0.765902     0.656213    Uiso  ? C
   C811       1.0     0.500316     0.781964     0.649926    Uiso  ? C
   N9         1.0     0.510491     0.783367     0.634755    Uiso  ? N
   H517       1.0     0.536393     0.769355     0.627707    Uiso  ? H
   H518       1.0     0.532320     0.756236     0.661599    Uiso  ? H
   H519       1.0     0.487725     0.790071     0.651597    Uiso  ? H
   N10        1.0     0.508802     0.772112     0.662776    Uiso  ? N
   C812       1.0     0.501927     0.771988     0.681526    Uiso  ? C
   H520       1.0     0.511274     0.779102     0.691004    Uiso  ? H
   H521       1.0     0.489603     0.779689     0.682244    Uiso  ? H
   C813       1.0     0.498678     0.752914     0.687865    Uiso  ? C
   C814       1.0     0.500517     0.749354     0.706271    Uiso  ? C
   C815       1.0     0.493772     0.738655     0.675883    Uiso  ? C
   C816       1.0     0.497134     0.732572     0.712879    Uiso  ? C
   H522       1.0     0.501489     0.760695     0.715121    Uiso  ? H
   C817       1.0     0.490727     0.721273     0.682838    Uiso  ? C
   H523       1.0     0.492241     0.740101     0.662074    Uiso  ? H
   C818       1.0     0.493167     0.717983     0.700810    Uiso  ? C
   H524       1.0     0.494068     0.732002     0.727126    Uiso  ? H
   H525       1.0     0.488021     0.710447     0.673603    Uiso  ? H
   C819       1.0     0.490551     0.699608     0.709334    Uiso  ? C
   C820       1.0     0.476015     0.696497     0.721214    Uiso  ? C
   C821       1.0     0.501884     0.685114     0.704284    Uiso  ? C
   C822       1.0     0.472001     0.679209     0.726737    Uiso  ? C
   H526       1.0     0.465693     0.707588     0.723816    Uiso  ? H
   C823       1.0     0.499016     0.667574     0.711170    Uiso  ? C
   H527       1.0     0.512723     0.687431     0.695178    Uiso  ? H
   C824       1.0     0.484825     0.664695     0.723128    Uiso  ? C
   H528       1.0     0.461041     0.675937     0.735603    Uiso  ? H
   H529       1.0     0.507805     0.655906     0.708278    Uiso  ? H
   C825       1.0     0.479233     0.645906     0.729363    Uiso  ? C
   H530       1.0     0.465077     0.644751     0.735775    Uiso  ? H
   H531       1.0     0.477041     0.638773     0.716146    Uiso  ? H
   N11        1.0     0.491752     0.637037     0.741917    Uiso  ? N
   C826       1.0     0.509857     0.637547     0.742795    Uiso  ? C
   C827       1.0     0.486479     0.624698     0.755050    Uiso  ? C
   C828       1.0     0.515074     0.624925     0.757343    Uiso  ? C
   H532       1.0     0.518261     0.646289     0.734359    Uiso  ? H
   H533       1.0     0.472828     0.620126     0.756449    Uiso  ? H
   H534       1.0     0.528737     0.621750     0.763961    Uiso  ? H
   N12        1.0     0.500145     0.617984     0.765122    Uiso  ? N
   C829       1.0     0.484445     0.352072     0.779592    Uiso  ? C
   C830       1.0     0.491520     0.340840     0.766816    Uiso  ? C
   C831       1.0     0.510693     0.362091     0.773711    Uiso  ? C
   N13        1.0     0.496950     0.364837     0.784707    Uiso  ? N
   H535       1.0     0.471510     0.351237     0.784612    Uiso  ? H
   H536       1.0     0.484736     0.328307     0.761936    Uiso  ? H
   H537       1.0     0.523911     0.367242     0.774047    Uiso  ? H
   N14        1.0     0.508509     0.347552     0.762278    Uiso  ? N
   C832       1.0     0.521506     0.340101     0.748974    Uiso  ? C
   H538       1.0     0.529615     0.351875     0.742781    Uiso  ? H
   H539       1.0     0.529790     0.330200     0.757771    Uiso  ? H
   C833       1.0     0.511304     0.330814     0.733979    Uiso  ? C
   C834       1.0     0.512594     0.311547     0.733431    Uiso  ? C
   C835       1.0     0.506442     0.339754     0.717285    Uiso  ? C
   C836       1.0     0.508154     0.301957     0.717597    Uiso  ? C
   H540       1.0     0.517847     0.304242     0.745365    Uiso  ? H
   C837       1.0     0.501695     0.330428     0.701979    Uiso  ? C
   H541       1.0     0.506009     0.354331     0.715447    Uiso  ? H
   C838       1.0     0.503676     0.311194     0.702021    Uiso  ? C
   H542       1.0     0.509260     0.287086     0.718548    Uiso  ? H
   H543       1.0     0.499241     0.337240     0.689249    Uiso  ? H
   C839       1.0     0.499823     0.300699     0.685701    Uiso  ? C
   C840       1.0     0.487090     0.287179     0.686731    Uiso  ? C
   C841       1.0     0.506434     0.306855     0.667849    Uiso  ? C
   C842       1.0     0.480992     0.278852     0.670935    Uiso  ? C
   H544       1.0     0.479965     0.282988     0.699690    Uiso  ? H
   C843       1.0     0.498310     0.299646     0.651897    Uiso  ? C
   H545       1.0     0.517636     0.316548     0.666364    Uiso  ? H
   C844       1.0     0.486365     0.284682     0.654003    Uiso  ? C
   H546       1.0     0.471625     0.267133     0.673011    Uiso  ? H
   H547       1.0     0.504694     0.302759     0.638112    Uiso  ? H
   C845       1.0     0.480011     0.274124     0.636724    Uiso  ? C
   H548       1.0     0.466554     0.268692     0.639775    Uiso  ? H
   H549       1.0     0.477684     0.282309     0.624249    Uiso  ? H
   N15        1.0     0.491481     0.258807     0.630968    Uiso  ? N
   C846       1.0     0.504046     0.249484     0.641593    Uiso  ? C
   C847       1.0     0.490707     0.248946     0.615296    Uiso  ? C
   C848       1.0     0.511018     0.235143     0.632365    Uiso  ? C
   H550       1.0     0.508940     0.252895     0.655275    Uiso  ? H
   H551       1.0     0.482048     0.251113     0.603827    Uiso  ? H
   H552       1.0     0.522816     0.225597     0.636175    Uiso  ? H
   N16        1.0     0.501304     0.233841     0.616693    Uiso  ? N
   C849       1.0     0.623770     0.244610     0.499421    Uiso  ? C
   C850       1.0     0.638641     0.254578     0.494594    Uiso  ? C
   C851       1.0     0.640401     0.228162     0.482163    Uiso  ? C
   N17        1.0     0.625163     0.227661     0.492349    Uiso  ? N
   H553       1.0     0.614829     0.250126     0.509732    Uiso  ? H
   H554       1.0     0.642033     0.268089     0.497338    Uiso  ? H
   H555       1.0     0.646637     0.216054     0.475949    Uiso  ? H
   N18        1.0     0.649091     0.244012     0.484360    Uiso  ? N
   C852       1.0     0.665517     0.248361     0.475146    Uiso  ? C
   H556       1.0     0.675697     0.236147     0.476446    Uiso  ? H
   H557       1.0     0.662471     0.249943     0.459916    Uiso  ? H
   C853       1.0     0.675809     0.264081     0.482695    Uiso  ? C
   C854       1.0     0.673798     0.280557     0.473285    Uiso  ? C
   C855       1.0     0.687636     0.263384     0.498782    Uiso  ? C
   C856       1.0     0.683101     0.296082     0.477839    Uiso  ? C
   H558       1.0     0.664589     0.280413     0.461991    Uiso  ? H
   C857       1.0     0.696452     0.279721     0.504153    Uiso  ? C
   H559       1.0     0.690610     0.251114     0.505874    Uiso  ? H
   C858       1.0     0.695123     0.295848     0.493240    Uiso  ? C
   H560       1.0     0.682828     0.307647     0.468261    Uiso  ? H
   H561       1.0     0.704999     0.279532     0.516813    Uiso  ? H
   C859       1.0     0.703915     0.312826     0.498802    Uiso  ? C
   C860       1.0     0.694458     0.329602     0.498210    Uiso  ? C
   C861       1.0     0.722097     0.311918     0.506237    Uiso  ? C
   C862       1.0     0.702756     0.344715     0.505976    Uiso  ? C
   H562       1.0     0.680397     0.330978     0.494122    Uiso  ? H
   C863       1.0     0.731179     0.327738     0.510280    Uiso  ? C
   H563       1.0     0.728443     0.298663     0.507982    Uiso  ? H
   C864       1.0     0.721588     0.344585     0.509580    Uiso  ? C
   H564       1.0     0.695675     0.356946     0.505065    Uiso  ? H
   H565       1.0     0.744392     0.329227     0.515280    Uiso  ? H
   C865       1.0     0.730958     0.361149     0.517533    Uiso  ? C
   H566       1.0     0.721589     0.372770     0.516139    Uiso  ? H
   H567       1.0     0.734316     0.358543     0.531857    Uiso  ? H
   N19        1.0     0.746844     0.366416     0.506594    Uiso  ? N
   C866       1.0     0.750760     0.360985     0.489476    Uiso  ? C
   C867       1.0     0.759857     0.379171     0.510366    Uiso  ? C
   C868       1.0     0.765740     0.369717     0.484027    Uiso  ? C
   H568       1.0     0.741892     0.353051     0.479939    Uiso  ? H
   H569       1.0     0.761613     0.385726     0.523637    Uiso  ? H
   H570       1.0     0.771570     0.368815     0.470317    Uiso  ? H
   N20        1.0     0.771591     0.380885     0.496694    Uiso  ? N
   C869       1.0     0.620648     0.757975     0.514743    Uiso  ? C
   C870       1.0     0.627111     0.741656     0.508503    Uiso  ? C
   C871       1.0     0.624342     0.759614     0.485726    Uiso  ? C
   N21        1.0     0.618055     0.769419     0.499782    Uiso  ? N
   H571       1.0     0.618906     0.761809     0.527940    Uiso  ? H
   H572       1.0     0.629386     0.730117     0.516394    Uiso  ? H
   H573       1.0     0.621909     0.764752     0.471842    Uiso  ? H
   N22        1.0     0.629112     0.742609     0.489750    Uiso  ? N
   C872       1.0     0.632674     0.728263     0.476713    Uiso  ? C
   H574       1.0     0.620982     0.718400     0.478341    Uiso  ? H
   H575       1.0     0.632824     0.732517     0.462815    Uiso  ? H
   C873       1.0     0.649490     0.717038     0.480305    Uiso  ? C
   C874       1.0     0.666356     0.722068     0.473209    Uiso  ? C
   C875       1.0     0.648423     0.699585     0.489153    Uiso  ? C
   C876       1.0     0.681669     0.711863     0.474677    Uiso  ? C
   H576       1.0     0.666912     0.735631     0.467161    Uiso  ? H
   C877       1.0     0.664455     0.689101     0.491460    Uiso  ? C
   H577       1.0     0.635572     0.695186     0.494188    Uiso  ? H
   C878       1.0     0.680694     0.694419     0.483559    Uiso  ? C
   H578       1.0     0.694196     0.717723     0.470685    Uiso  ? H
   H579       1.0     0.663254     0.675991     0.495999    Uiso  ? H
   C879       1.0     0.698978     0.683549     0.486168    Uiso  ? C
   C880       1.0     0.703388     0.677829     0.503318    Uiso  ? C
   C881       1.0     0.712100     0.682775     0.472113    Uiso  ? C
   C882       1.0     0.720646     0.670390     0.505778    Uiso  ? C
   H580       1.0     0.696399     0.680610     0.516220    Uiso  ? H
   C883       1.0     0.728798     0.674885     0.475018    Uiso  ? C
   H581       1.0     0.709450     0.686987     0.457958    Uiso  ? H
   C884       1.0     0.733665     0.669254     0.492075    Uiso  ? C
   H582       1.0     0.723378     0.665428     0.519724    Uiso  ? H
   H583       1.0     0.737939     0.672532     0.464536    Uiso  ? H
   C885       1.0     0.753383     0.663023     0.495668    Uiso  ? C
   H584       1.0     0.763553     0.669704     0.486598    Uiso  ? H
   H585       1.0     0.756474     0.669284     0.508979    Uiso  ? H
   N23        1.0     0.756735     0.643045     0.494152    Uiso  ? N
   C886       1.0     0.745164     0.628685     0.490834    Uiso  ? C
   C887       1.0     0.772582     0.635434     0.497020    Uiso  ? C
   C888       1.0     0.755592     0.613190     0.492002    Uiso  ? C
   H586       1.0     0.730883     0.629010     0.487300    Uiso  ? H
   H587       1.0     0.784625     0.643482     0.501107    Uiso  ? H
   H588       1.0     0.750363     0.600385     0.487949    Uiso  ? H
   N24        1.0     0.772581     0.617230     0.493808    Uiso  ? N
   C889       1.0     0.234384     0.377157     0.501817    Uiso  ? C
   C890       1.0     0.247954     0.367060     0.492879    Uiso  ? C
   C891       1.0     0.225965     0.370947     0.474619    Uiso  ? C
   N25        1.0     0.220281     0.378775     0.490153    Uiso  ? N
   H589       1.0     0.233720     0.383073     0.515893    Uiso  ? H
   H590       1.0     0.260708     0.364548     0.498687    Uiso  ? H
   H591       1.0     0.216953     0.367257     0.463221    Uiso  ? H
   N26        1.0     0.242913     0.363142     0.476157    Uiso  ? N
   C892       1.0     0.253508     0.354267     0.462301    Uiso  ? C
   H592       1.0     0.243321     0.351285     0.451866    Uiso  ? H
   H593       1.0     0.262564     0.366135     0.456343    Uiso  ? H
   C893       1.0     0.264432     0.337881     0.468938    Uiso  ? C
   C894       1.0     0.257528     0.320687     0.467899    Uiso  ? C
   C895       1.0     0.282951     0.340800     0.474442    Uiso  ? C
   C896       1.0     0.267324     0.305276     0.475238    Uiso  ? C
   H594       1.0     0.243641     0.318811     0.463783    Uiso  ? H
   C897       1.0     0.293150     0.325410     0.479093    Uiso  ? C
   H595       1.0     0.288235     0.354623     0.474764    Uiso  ? H
   C898       1.0     0.285572     0.307742     0.480424    Uiso  ? C
   H596       1.0     0.259765     0.291634     0.476366    Uiso  ? H
   H597       1.0     0.305842     0.327072     0.484244    Uiso  ? H
   C899       1.0     0.297298     0.291860     0.484740    Uiso  ? C
   C900       1.0     0.314621     0.289691     0.475857    Uiso  ? C
   C901       1.0     0.290681     0.277389     0.494877    Uiso  ? C
   C902       1.0     0.324400     0.272695     0.477615    Uiso  ? C
   H598       1.0     0.318203     0.298991     0.465096    Uiso  ? H
   C903       1.0     0.302303     0.261928     0.499082    Uiso  ? C
   H599       1.0     0.276844     0.278332     0.498580    Uiso  ? H
   C904       1.0     0.319483     0.260163     0.490652    Uiso  ? C
   H600       1.0     0.338142     0.271679     0.472786    Uiso  ? H
   H601       1.0     0.297042     0.251868     0.508778    Uiso  ? H
   C905       1.0     0.327635     0.241955     0.490852    Uiso  ? C
   H602       1.0     0.320181     0.232173     0.499781    Uiso  ? H
   H603       1.0     0.325742     0.235754     0.478583    Uiso  ? H
   N27        1.0     0.347075     0.241816     0.495173    Uiso  ? N
   C906       1.0     0.356232     0.252492     0.506691    Uiso  ? C
   C907       1.0     0.359312     0.229276     0.488459    Uiso  ? C
   C908       1.0     0.374249     0.245825     0.507275    Uiso  ? C
   H604       1.0     0.350014     0.262465     0.515789    Uiso  ? H
   H605       1.0     0.355960     0.220537     0.478333    Uiso  ? H
   H606       1.0     0.383806     0.250459     0.516987    Uiso  ? H
   N28        1.0     0.376809     0.231792     0.495585    Uiso  ? N
   C909       1.0     0.243319     0.613957     0.519033    Uiso  ? C
   C910       1.0     0.253150     0.628833     0.513598    Uiso  ? C
   C911       1.0     0.226888     0.629623     0.500460    Uiso  ? C
   N29        1.0     0.226126     0.614433     0.511426    Uiso  ? N
   H607       1.0     0.248867     0.602657     0.526523    Uiso  ? H
   H608       1.0     0.267839     0.632798     0.518332    Uiso  ? H
   H609       1.0     0.217132     0.632628     0.488322    Uiso  ? H
   N30        1.0     0.241794     0.639522     0.503687    Uiso  ? N
   C912       1.0     0.248368     0.654305     0.491556    Uiso  ? C
   H610       1.0     0.254444     0.647413     0.478873    Uiso  ? H
   H611       1.0     0.236851     0.664537     0.487438    Uiso  ? H
   C913       1.0     0.264967     0.665083     0.499934    Uiso  ? C
   C914       1.0     0.282072     0.661694     0.493659    Uiso  ? C
   C915       1.0     0.261965     0.680722     0.509386    Uiso  ? C
   C916       1.0     0.295278     0.674818     0.494928    Uiso  ? C
   H612       1.0     0.284384     0.647987     0.488244    Uiso  ? H
   C917       1.0     0.276255     0.692749     0.513735    Uiso  ? C
   H613       1.0     0.249034     0.684868     0.513605    Uiso  ? H
   C918       1.0     0.293174     0.689678     0.506513    Uiso  ? C
   H614       1.0     0.308313     0.672573     0.488643    Uiso  ? H
   H615       1.0     0.273483     0.704738     0.520899    Uiso  ? H
   C919       1.0     0.308631     0.702524     0.511027    Uiso  ? C
   C920       1.0     0.305459     0.721204     0.511158    Uiso  ? C
   C921       1.0     0.325829     0.695856     0.513129    Uiso  ? C
   C922       1.0     0.321040     0.733100     0.513568    Uiso  ? C
   H616       1.0     0.292114     0.726930     0.507518    Uiso  ? H
   C923       1.0     0.340889     0.707448     0.514031    Uiso  ? C
   H617       1.0     0.328604     0.681301     0.514728    Uiso  ? H
   C924       1.0     0.338598     0.726575     0.515166    Uiso  ? C
   H618       1.0     0.318612     0.747133     0.515909    Uiso  ? H
   H619       1.0     0.354368     0.702463     0.515596    Uiso  ? H
   C925       1.0     0.353147     0.737507     0.525150    Uiso  ? C
   H620       1.0     0.346740     0.745020     0.537450    Uiso  ? H
   H621       1.0     0.363062     0.729119     0.532526    Uiso  ? H
   N31        1.0     0.362541     0.749833     0.512881    Uiso  ? N
   C926       1.0     0.364429     0.748401     0.494995    Uiso  ? C
   C927       1.0     0.374517     0.762366     0.518389    Uiso  ? C
   C928       1.0     0.376319     0.761452     0.489097    Uiso  ? C
   H622       1.0     0.356624     0.740441     0.486139    Uiso  ? H
   H623       1.0     0.376338     0.767730     0.531629    Uiso  ? H
   H624       1.0     0.380453     0.765858     0.475250    Uiso  ? H
   N32        1.0     0.383287     0.769757     0.504032    Uiso  ? N
   C929       1.0     0.644764     0.520140     0.215467    Uiso  ? C
   C930       1.0     0.651460     0.521839     0.232579    Uiso  ? C
   C931       1.0     0.625938     0.508105     0.234573    Uiso  ? C
   N33        1.0     0.628591     0.511257     0.216598    Uiso  ? N
   H625       1.0     0.650111     0.525056     0.202888    Uiso  ? H
   H626       1.0     0.664974     0.527500     0.234965    Uiso  ? H
   H627       1.0     0.613868     0.501345     0.240079    Uiso  ? H
   N34        1.0     0.640625     0.512519     0.244137    Uiso  ? N
   C932       1.0     0.640514     0.513251     0.264106    Uiso  ? C
   H628       1.0     0.631145     0.523778     0.270366    Uiso  ? H
   H629       1.0     0.634434     0.500143     0.269068    Uiso  ? H
   C933       1.0     0.660086     0.516771     0.270419    Uiso  ? C
   C934       1.0     0.670725     0.501434     0.273831    Uiso  ? C
   C935       1.0     0.665689     0.534128     0.274735    Uiso  ? C
   C936       1.0     0.688089     0.504652     0.281311    Uiso  ? C
   H630       1.0     0.666345     0.487675     0.270316    Uiso  ? H
   C937       1.0     0.681945     0.536547     0.283334    Uiso  ? C
   H631       1.0     0.656751     0.545090     0.271046    Uiso  ? H
   C938       1.0     0.693855     0.522103     0.288047    Uiso  ? C
   H632       1.0     0.696100     0.493204     0.285714    Uiso  ? H
   H633       1.0     0.684515     0.549964     0.287302    Uiso  ? H
   C939       1.0     0.711361     0.523919     0.298112    Uiso  ? C
   C940       1.0     0.726617     0.514413     0.293930    Uiso  ? C
   C941       1.0     0.712393     0.535941     0.313439    Uiso  ? C
   C942       1.0     0.742025     0.513609     0.304347    Uiso  ? C
   H634       1.0     0.726860     0.505055     0.281974    Uiso  ? H
   C943       1.0     0.728995     0.537836     0.323155    Uiso  ? C
   H635       1.0     0.700800     0.543167     0.318408    Uiso  ? H
   C944       1.0     0.743702     0.526881     0.318765    Uiso  ? C
   H636       1.0     0.753356     0.504724     0.300552    Uiso  ? H
   H637       1.0     0.729712     0.546856     0.334410    Uiso  ? H
   C945       1.0     0.760686     0.527586     0.329901    Uiso  ? C
   H638       1.0     0.771272     0.523308     0.320877    Uiso  ? H
   H639       1.0     0.761517     0.541558     0.334010    Uiso  ? H
   N35        1.0     0.759840     0.514964     0.344485    Uiso  ? N
   C946       1.0     0.757149     0.497101     0.344173    Uiso  ? C
   C947       1.0     0.768699     0.518849     0.360460    Uiso  ? C
   C948       1.0     0.765441     0.489411     0.359457    Uiso  ? C
   H640       1.0     0.752802     0.489941     0.333014    Uiso  ? H
   H641       1.0     0.774240     0.531725     0.362797    Uiso  ? H
   H642       1.0     0.767498     0.474825     0.362467    Uiso  ? H
   N36        1.0     0.772452     0.502780     0.369685    Uiso  ? N
   C949       1.0     0.383832     0.511864     0.247312    Uiso  ? C
   C950       1.0     0.366830     0.515136     0.253525    Uiso  ? C
   C951       1.0     0.365464     0.517254     0.224917    Uiso  ? C
   N37        1.0     0.382191     0.510992     0.228792    Uiso  ? N
   H643       1.0     0.395303     0.507002     0.255280    Uiso  ? H
   H644       1.0     0.362747     0.515203     0.267920    Uiso  ? H
   H645       1.0     0.362147     0.520186     0.210667    Uiso  ? H
   N38        1.0     0.355308     0.518538     0.239078    Uiso  ? N
   C952       1.0     0.336848     0.525717     0.239504    Uiso  ? C
   H646       1.0     0.336926     0.540970     0.235441    Uiso  ? H
   H647       1.0     0.329809     0.518060     0.228180    Uiso  ? H
   C953       1.0     0.328438     0.522941     0.258900    Uiso  ? C
   C954       1.0     0.324468     0.505791     0.266321    Uiso  ? C
   C955       1.0     0.322738     0.538762     0.268709    Uiso  ? C
   C956       1.0     0.316287     0.505883     0.284078    Uiso  ? C
   H648       1.0     0.328676     0.493652     0.257653    Uiso  ? H
   C957       1.0     0.312766     0.538171     0.284885    Uiso  ? C
   H649       1.0     0.326497     0.552332     0.262245    Uiso  ? H
   C958       1.0     0.309588     0.521190     0.293047    Uiso  ? C
   H650       1.0     0.317408     0.491627     0.289950    Uiso  ? H
   H651       1.0     0.310840     0.551308     0.290807    Uiso  ? H
   C959       1.0     0.299486     0.518895     0.311419    Uiso  ? C
   C960       1.0     0.287216     0.505350     0.313992    Uiso  ? C
   C961       1.0     0.301560     0.531247     0.325283    Uiso  ? C
   C962       1.0     0.278855     0.501659     0.330475    Uiso  ? C
   H652       1.0     0.285193     0.495631     0.303864    Uiso  ? H
   C963       1.0     0.292503     0.528701     0.341945    Uiso  ? C
   H653       1.0     0.310303     0.543762     0.322898    Uiso  ? H
   C964       1.0     0.281796     0.513809     0.345394    Uiso  ? C
   H654       1.0     0.271665     0.489527     0.332606    Uiso  ? H
   H655       1.0     0.293656     0.539666     0.351334    Uiso  ? H
   C965       1.0     0.274119     0.508451     0.363908    Uiso  ? C
   H656       1.0     0.276663     0.493660     0.365611    Uiso  ? H
   H657       1.0     0.280771     0.515571     0.375527    Uiso  ? H
   N39        1.0     0.254416     0.511887     0.364225    Uiso  ? N
   C966       1.0     0.242401     0.515869     0.351744    Uiso  ? C
   C967       1.0     0.244231     0.507363     0.379215    Uiso  ? C
   C968       1.0     0.225455     0.515445     0.359459    Uiso  ? C
   H658       1.0     0.245700     0.522059     0.338210    Uiso  ? H
   H659       1.0     0.249890     0.500699     0.391454    Uiso  ? H
   H660       1.0     0.212468     0.518843     0.353632    Uiso  ? H
   N40        1.0     0.226635     0.509471     0.376592    Uiso  ? N
   C969       1.0     0.236088     0.506870     0.633064    Uiso  ? C
   C970       1.0     0.242490     0.507937     0.650899    Uiso  ? C
   C971       1.0     0.219606     0.489871     0.650299    Uiso  ? C
   N41        1.0     0.221339     0.495738     0.632285    Uiso  ? N
   H661       1.0     0.240967     0.516369     0.622436    Uiso  ? H
   H662       1.0     0.252535     0.517543     0.655894    Uiso  ? H
   H663       1.0     0.208140     0.482820     0.655502    Uiso  ? H
   N42        1.0     0.231150     0.498422     0.661545    Uiso  ? N
   C972       1.0     0.232303     0.495081     0.681877    Uiso  ? C
   H664       1.0     0.225431     0.506389     0.689244    Uiso  ? H
   H665       1.0     0.225274     0.481650     0.683976    Uiso  ? H
   C973       1.0     0.251828     0.493369     0.689313    Uiso  ? C
   C974       1.0     0.258158     0.506258     0.701847    Uiso  ? C
   C975       1.0     0.263473     0.478695     0.684276    Uiso  ? C
   C976       1.0     0.276640     0.505728     0.708091    Uiso  ? C
   H666       1.0     0.250428     0.518830     0.704373    Uiso  ? H
   C977       1.0     0.280864     0.477048     0.690054    Uiso  ? C
   H667       1.0     0.255730     0.468281     0.676727    Uiso  ? H
   C978       1.0     0.287537     0.490682     0.701691    Uiso  ? C
   H668       1.0     0.281201     0.515512     0.718829    Uiso  ? H
   H669       1.0     0.289033     0.465584     0.686396    Uiso  ? H
   C979       1.0     0.306155     0.486991     0.709776    Uiso  ? C
   C980       1.0     0.319310     0.500931     0.709062    Uiso  ? C
   C981       1.0     0.308973     0.472411     0.722417    Uiso  ? C
   C982       1.0     0.336809     0.497843     0.717343    Uiso  ? C
   H670       1.0     0.319409     0.513171     0.702143    Uiso  ? H
   C983       1.0     0.325934     0.470157     0.730982    Uiso  ? C
   H671       1.0     0.297210     0.463712     0.724681    Uiso  ? H
   C984       1.0     0.340010     0.482662     0.728315    Uiso  ? C
   H672       1.0     0.346565     0.507469     0.714016    Uiso  ? H
   H673       1.0     0.328353     0.457932     0.738790    Uiso  ? H
   C985       1.0     0.358540     0.479599     0.736189    Uiso  ? C
   H674       1.0     0.361518     0.464946     0.733746    Uiso  ? H
   H675       1.0     0.369593     0.488579     0.728258    Uiso  ? H
   N43        1.0     0.358168     0.482917     0.756019    Uiso  ? N
   C986       1.0     0.345800     0.479110     0.769112    Uiso  ? C
   C987       1.0     0.373946     0.486889     0.764797    Uiso  ? C
   C988       1.0     0.354055     0.480778     0.785601    Uiso  ? C
   H676       1.0     0.332271     0.474617     0.767394    Uiso  ? H
   H677       1.0     0.387641     0.488377     0.758260    Uiso  ? H
   H678       1.0     0.347702     0.475775     0.798171    Uiso  ? H
   N44        1.0     0.371722     0.486212     0.782499    Uiso  ? N
   C989       1.0     0.636098     0.496007     0.771485    Uiso  ? C
   C990       1.0     0.644448     0.486422     0.756942    Uiso  ? C
   C991       1.0     0.617927     0.475213     0.760232    Uiso  ? C
   N45        1.0     0.619876     0.488256     0.773584    Uiso  ? N
   H679       1.0     0.642167     0.506248     0.779168    Uiso  ? H
   H680       1.0     0.658696     0.489880     0.753592    Uiso  ? H
   H681       1.0     0.605587     0.465189     0.759077    Uiso  ? H
   N46        1.0     0.633454     0.473661     0.749895    Uiso  ? N
   C992       1.0     0.637435     0.458913     0.737753    Uiso  ? C
   H682       1.0     0.639980     0.446511     0.745890    Uiso  ? H
   H683       1.0     0.624734     0.455513     0.729824    Uiso  ? H
   C993       1.0     0.653124     0.462474     0.724706    Uiso  ? C
   C994       1.0     0.653717     0.478491     0.713384    Uiso  ? C
   C995       1.0     0.668962     0.451327     0.725168    Uiso  ? C
   C996       1.0     0.670102     0.483931     0.705988    Uiso  ? C
   H684       1.0     0.642379     0.487594     0.710754    Uiso  ? H
   C997       1.0     0.683893     0.455880     0.715414    Uiso  ? C
   H685       1.0     0.668240     0.438263     0.731849    Uiso  ? H
   C998       1.0     0.684982     0.472213     0.706242    Uiso  ? C
   H686       1.0     0.669544     0.496456     0.696899    Uiso  ? H
   H687       1.0     0.694604     0.446795     0.715634    Uiso  ? H
   C999       1.0     0.703008     0.478267     0.698902    Uiso  ? C
   C1000      1.0     0.713980     0.467335     0.688007    Uiso  ? C
   C1001      1.0     0.709506     0.496193     0.701475    Uiso  ? C
   C1002      1.0     0.728429     0.474643     0.677353    Uiso  ? C
   H688       1.0     0.709445     0.454638     0.684265    Uiso  ? H
   C1003      1.0     0.724559     0.503656     0.692474    Uiso  ? C
   H689       1.0     0.704082     0.505970     0.712064    Uiso  ? H
   C1004      1.0     0.734479     0.492544     0.680920    Uiso  ? C
   H690       1.0     0.735399     0.465652     0.668614    Uiso  ? H
   H691       1.0     0.730340     0.516786     0.696563    Uiso  ? H
   C1005      1.0     0.752994     0.498270     0.675265    Uiso  ? C
   H692       1.0     0.757396     0.511622     0.681900    Uiso  ? H
   H693       1.0     0.762800     0.487324     0.680717    Uiso  ? H
   N47        1.0     0.755455     0.500862     0.655283    Uiso  ? N
   C1006      1.0     0.746930     0.512857     0.644221    Uiso  ? C
   C1007      1.0     0.769250     0.494326     0.644902    Uiso  ? C
   C1008      1.0     0.755098     0.512605     0.627283    Uiso  ? C
   H694       1.0     0.734783     0.519192     0.648044    Uiso  ? H
   H695       1.0     0.780675     0.485206     0.649227    Uiso  ? H
   H696       1.0     0.753343     0.522561     0.617240    Uiso  ? H
   N48        1.0     0.769242     0.501269     0.628247    Uiso  ? N
   C1009      1.0     0.632307     0.637301     0.896243    Uiso  ? C
   C1010      1.0     0.643834     0.649483     0.888670    Uiso  ? C
   C1011      1.0     0.632116     0.633552     0.867102    Uiso  ? C
   N49        1.0     0.624878     0.627698     0.882549    Uiso  ? N
   H697       1.0     0.627203     0.637874     0.109511    Uiso  ? H
   H698       1.0     0.651126     0.660533     0.896362    Uiso  ? H
   H699       1.0     0.629048     0.629070     0.853363    Uiso  ? H
   N50        1.0     0.644144     0.647122     0.870709    Uiso  ? N
   C1012      1.0     0.652364     0.658729     0.856595    Uiso  ? C
   H700       1.0     0.659858     0.650973     0.846218    Uiso  ? H
   H701       1.0     0.643078     0.665515     0.847863    Uiso  ? H
   C1013      1.0     0.663607     0.673230     0.864173    Uiso  ? C
   C1014      1.0     0.680389     0.669421     0.869972    Uiso  ? C
   C1015      1.0     0.656614     0.690544     0.868756    Uiso  ? C
   C1016      1.0     0.692291     0.682940     0.877702    Uiso  ? C
   H702       1.0     0.685640     0.656651     0.867527    Uiso  ? H
   C1017      1.0     0.668529     0.704650     0.873770    Uiso  ? C
   H703       1.0     0.641486     0.693458     0.867776    Uiso  ? H
   C1018      1.0     0.686831     0.701790     0.878874    Uiso  ? C
   H704       1.0     0.705601     0.679325     0.880786    Uiso  ? H
   H705       1.0     0.661715     0.717820     0.876942    Uiso  ? H
   C1019      1.0     0.696416     0.716907     0.887771    Uiso  ? C
   C1020      1.0     0.691625     0.734887     0.883213    Uiso  ? C
   C1021      1.0     0.709872     0.713555     0.100138    Uiso  ? C
   C1022      1.0     0.701592     0.748948     0.892500    Uiso  ? C
   H706       1.0     0.682822     0.737439     0.872089    Uiso  ? H
   C1023      1.0     0.720183     0.728320     0.108492    Uiso  ? C
   H707       1.0     0.713778     0.700425     0.104281    Uiso  ? H
   C1024      1.0     0.715060     0.746021     0.105870    Uiso  ? C
   H708       1.0     0.700113     0.762877     0.887232    Uiso  ? H
   H709       1.0     0.731961     0.725700     0.118225    Uiso  ? H
   C1025      1.0     0.727036     0.761900     0.113393    Uiso  ? C
   H710       1.0     0.717390     0.773963     0.114788    Uiso  ? H
   H711       1.0     0.730763     0.756249     0.127973    Uiso  ? H
   N51        1.0     0.743510     0.766329     0.103018    Uiso  ? N
   C1026      1.0     0.748882     0.758070     0.888012    Uiso  ? C
   C1027      1.0     0.756695     0.778755     0.106695    Uiso  ? C
   C1028      1.0     0.765639     0.764611     0.883153    Uiso  ? C
   H712       1.0     0.740773     0.749234     0.879072    Uiso  ? H
   H713       1.0     0.756739     0.786438     0.119672    Uiso  ? H
   H714       1.0     0.771783     0.762401     0.870391    Uiso  ? H
   N52        1.0     0.770565     0.777382     0.895293    Uiso  ? N
   C1029      1.0     0.634373     0.364437     0.113247    Uiso  ? C
   C1030      1.0     0.649656     0.355319     0.105981    Uiso  ? C
   C1031      1.0     0.638399     0.372451     0.886860    Uiso  ? C
   N53        1.0     0.627349     0.375431     0.100969    Uiso  ? N
   H715       1.0     0.630570     0.363877     0.127270    Uiso  ? H
   H716       1.0     0.659110     0.345738     0.112363    Uiso  ? H
   H717       1.0     0.637112     0.381009     0.874982    Uiso  ? H
   N54        1.0     0.652147     0.359908     0.889266    Uiso  ? N
   C1032      1.0     0.667667     0.355467     0.876433    Uiso  ? C
   H718       1.0     0.661746     0.355292     0.862232    Uiso  ? H
   H719       1.0     0.677767     0.367622     0.877169    Uiso  ? H
   C1033      1.0     0.675577     0.336819     0.878787    Uiso  ? C
   C1034      1.0     0.694710     0.334069     0.877028    Uiso  ? C
   C1035      1.0     0.663887     0.322203     0.885185    Uiso  ? C
   C1036      1.0     0.702454     0.317084     0.882560    Uiso  ? C
   H720       1.0     0.703421     0.345052     0.873132    Uiso  ? H
   C1037      1.0     0.671225     0.305603     0.889032    Uiso  ? C
   H721       1.0     0.649878     0.324497     0.887564    Uiso  ? H
   C1038      1.0     0.690235     0.302641     0.887527    Uiso  ? C
   H722       1.0     0.716636     0.315408     0.883641    Uiso  ? H
   H723       1.0     0.663236     0.296281     0.897819    Uiso  ? H
   C1039      1.0     0.698846     0.286209     0.895428    Uiso  ? C
   C1040      1.0     0.690428     0.268627     0.892206    Uiso  ? C
   C1041      1.0     0.714147     0.288208     0.105484    Uiso  ? C
   C1042      1.0     0.697519     0.254047     0.100000    Uiso  ? C
   H724       1.0     0.679076     0.267180     0.883208    Uiso  ? H
   C1043      1.0     0.721197     0.272445     0.112538    Uiso  ? C
   H725       1.0     0.721416     0.300140     0.109199    Uiso  ? H
   C1044      1.0     0.713889     0.255022     0.109670    Uiso  ? C
   H726       1.0     0.691682     0.240468     0.895519    Uiso  ? H
   H727       1.0     0.734016     0.273661     0.120141    Uiso  ? H
   C1045      1.0     0.723270     0.238039     0.116203    Uiso  ? C
   H728       1.0     0.724897     0.239937     0.131134    Uiso  ? H
   H729       1.0     0.715184     0.225242     0.115031    Uiso  ? H
   N55        1.0     0.740757     0.234217     0.107092    Uiso  ? N
   C1046      1.0     0.745274     0.239073     0.890231    Uiso  ? C
   C1047      1.0     0.753584     0.221724     0.111102    Uiso  ? C
   C1048      1.0     0.760238     0.229274     0.884579    Uiso  ? C
   H730       1.0     0.737965     0.249836     0.882912    Uiso  ? H
   H731       1.0     0.754171     0.215649     0.124744    Uiso  ? H
   H732       1.0     0.767757     0.231299     0.872233    Uiso  ? H
   N56        1.0     0.765197     0.217532     0.897572    Uiso  ? N
   C1049      1.0     0.221303     0.757590     0.892847    Uiso  ? C
   C1050      1.0     0.238995     0.750870     0.894427    Uiso  ? C
   C1051      1.0     0.237396     0.779489     0.105357    Uiso  ? C
   N57        1.0     0.220999     0.774255     0.900000    Uiso  ? N
   H733       1.0     0.209783     0.752618     0.885997    Uiso  ? H
   H734       1.0     0.244015     0.736954     0.890542    Uiso  ? H
   H735       1.0     0.241399     0.792046     0.111893    Uiso  ? H
   N58        1.0     0.248884     0.764920     0.102394    Uiso  ? N
   C1052      1.0     0.267274     0.764842     0.110503    Uiso  ? C
   H736       1.0     0.273794     0.777740     0.108436    Uiso  ? H
   H737       1.0     0.265100     0.765042     0.125190    Uiso  ? H
   C1053      1.0     0.279159     0.748471     0.104691    Uiso  ? C
   C1054      1.0     0.277389     0.732993     0.114306    Uiso  ? C
   C1055      1.0     0.293815     0.750746     0.892606    Uiso  ? C
   C1056      1.0     0.287839     0.717656     0.108722    Uiso  ? C
   H738       1.0     0.266900     0.731382     0.124732    Uiso  ? H
   C1057      1.0     0.304471     0.735925     0.887663    Uiso  ? C
   H739       1.0     0.296503     0.763336     0.885971    Uiso  ? H
   C1058      1.0     0.301156     0.718329     0.895536    Uiso  ? C
   H740       1.0     0.283887     0.704367     0.114328    Uiso  ? H
   H741       1.0     0.315866     0.736596     0.878050    Uiso  ? H
   C1059      1.0     0.313439     0.703201     0.890623    Uiso  ? C
   C1060      1.0     0.305977     0.686731     0.885181    Uiso  ? C
   C1061      1.0     0.332429     0.704639     0.890817    Uiso  ? C
   C1062      1.0     0.317153     0.672465     0.879588    Uiso  ? C
   H742       1.0     0.291510     0.685381     0.881090    Uiso  ? H
   C1063      1.0     0.343568     0.688977     0.885746    Uiso  ? C
   H743       1.0     0.339852     0.717040     0.892864    Uiso  ? H
   C1064      1.0     0.336073     0.673225     0.878807    Uiso  ? C
   H744       1.0     0.310002     0.660308     0.875106    Uiso  ? H
   H745       1.0     0.357344     0.691114     0.885316    Uiso  ? H
   C1065      1.0     0.346390     0.657773     0.870181    Uiso  ? C
   H746       1.0     0.337204     0.650708     0.860024    Uiso  ? H
   H747       1.0     0.356788     0.663394     0.861133    Uiso  ? H
   N59        1.0     0.353567     0.644291     0.883048    Uiso  ? N
   C1066      1.0     0.346566     0.639260     0.898508    Uiso  ? C
   C1067      1.0     0.365981     0.631581     0.879255    Uiso  ? C
   C1068      1.0     0.357148     0.626672     0.105821    Uiso  ? C
   H748       1.0     0.334713     0.646890     0.104227    Uiso  ? H
   H749       1.0     0.374536     0.631953     0.866926    Uiso  ? H
   H750       1.0     0.356844     0.620525     0.119436    Uiso  ? H
   N60        1.0     0.369020     0.620722     0.894082    Uiso  ? N
   C1069      1.0     0.236027     0.222946     0.116649    Uiso  ? C
   C1070      1.0     0.247638     0.237805     0.114727    Uiso  ? C
   C1071      1.0     0.227094     0.237799     0.894289    Uiso  ? C
   N61        1.0     0.223928     0.223005     0.103564    Uiso  ? N
   H751       1.0     0.235405     0.212189     0.126990    Uiso  ? H
   H752       1.0     0.257288     0.242113     0.125077    Uiso  ? H
   H753       1.0     0.219332     0.241706     0.882084    Uiso  ? H
   N62        1.0     0.241527     0.248006     0.100203    Uiso  ? N
   C1072      1.0     0.244864     0.265944     0.896148    Uiso  ? C
   H754       1.0     0.243541     0.266348     0.880538    Uiso  ? H
   H755       1.0     0.233556     0.276664     0.100411    Uiso  ? H
   C1073      1.0     0.262732     0.272908     0.101690    Uiso  ? C
   C1074      1.0     0.263746     0.285868     0.115632    Uiso  ? C
   C1075      1.0     0.278403     0.265689     0.893273    Uiso  ? C
   C1076      1.0     0.280378     0.293974     0.119027    Uiso  ? C
   H756       1.0     0.252748     0.288001     0.124757    Uiso  ? H
   C1077      1.0     0.295107     0.273570     0.897352    Uiso  ? C
   H757       1.0     0.278361     0.253925     0.883743    Uiso  ? H
   C1078      1.0     0.295764     0.289724     0.109219    Uiso  ? C
   H758       1.0     0.281301     0.303316     0.130772    Uiso  ? H
   H759       1.0     0.307700     0.269560     0.891522    Uiso  ? H
   C1079      1.0     0.313144     0.299601     0.112846    Uiso  ? C
   C1080      1.0     0.325733     0.301697     0.899358    Uiso  ? C
   C1081      1.0     0.318267     0.304525     0.130668    Uiso  ? C
   C1082      1.0     0.341777     0.313110     0.101601    Uiso  ? C
   H760       1.0     0.322079     0.297781     0.885761    Uiso  ? H
   C1083      1.0     0.333864     0.314937     0.133306    Uiso  ? C
   H761       1.0     0.309099     0.302955     0.142003    Uiso  ? H
   C1084      1.0     0.346563     0.318967     0.119570    Uiso  ? C
   H762       1.0     0.349479     0.318205     0.890687    Uiso  ? H
   H763       1.0     0.336825     0.318440     0.147430    Uiso  ? H
   C1085      1.0     0.365386     0.326088     0.123029    Uiso  ? C
   H764       1.0     0.369627     0.324787     0.137123    Uiso  ? H
   H765       1.0     0.375786     0.318619     0.115214    Uiso  ? H
   N63        1.0     0.367444     0.345653     0.117500    Uiso  ? N
   C1086      1.0     0.353254     0.357250     0.113797    Uiso  ? C
   C1087      1.0     0.382715     0.357108     0.117166    Uiso  ? C
   C1088      1.0     0.361079     0.373869     0.111360    Uiso  ? C
   H766       1.0     0.338617     0.355536     0.110516    Uiso  ? H
   H767       1.0     0.395853     0.352441     0.120154    Uiso  ? H
   H768       1.0     0.352809     0.385887     0.108215    Uiso  ? H
   N64        1.0     0.379109     0.374804     0.113373    Uiso  ? N
   C1089      1.0     0.645677     0.114396     0.618958    Uiso  ? C
   C1090      1.0     0.651772     0.116869     0.636804    Uiso  ? C
   C1091      1.0     0.623453     0.108185     0.637730    Uiso  ? C
   N65        1.0     0.627976     0.109678     0.620248    Uiso  ? N
   H769       1.0     0.652498     0.119035     0.606644    Uiso  ? H
   H770       1.0     0.664690     0.122005     0.639939    Uiso  ? H
   H771       1.0     0.610791     0.105021     0.642840    Uiso  ? H
   N66        1.0     0.638554     0.111864     0.648134    Uiso  ? N
   C1092      1.0     0.636575     0.118216     0.667323    Uiso  ? C
   H772       1.0     0.633587     0.132281     0.666451    Uiso  ? H
   H773       1.0     0.624733     0.111487     0.672825    Uiso  ? H
   C1093      1.0     0.653338     0.113982     0.678344    Uiso  ? C
   C1094      1.0     0.657982     0.892790     0.683463    Uiso  ? C
   C1095      1.0     0.663754     0.128634     0.685652    Uiso  ? C
   C1096      1.0     0.672719     0.890610     0.694671    Uiso  ? C
   H774       1.0     0.650109     0.882024     0.678068    Uiso  ? H
   C1097      1.0     0.679145     0.125793     0.696969    Uiso  ? C
   H775       1.0     0.661248     0.142817     0.681823    Uiso  ? H
   C1098      1.0     0.684763     0.107959     0.701091    Uiso  ? C
   H776       1.0     0.677349     0.877317     0.696908    Uiso  ? H
   H777       1.0     0.686554     0.137880     0.701113    Uiso  ? H
   C1099      1.0     0.701926     0.103799     0.710522    Uiso  ? C
   C1100      1.0     0.712791     0.885736     0.703077    Uiso  ? C
   C1101      1.0     0.707941     0.115107     0.723944    Uiso  ? C
   C1102      1.0     0.731585     0.885925     0.708135    Uiso  ? C
   H778       1.0     0.709012     0.876500     0.692432    Uiso  ? H
   C1103      1.0     0.726189     0.112857     0.730933    Uiso  ? C
   H779       1.0     0.700149     0.125484     0.731377    Uiso  ? H
   C1104      1.0     0.737213     0.897206     0.721826    Uiso  ? C
   H780       1.0     0.739849     0.876080     0.703152    Uiso  ? H
   H781       1.0     0.730877     0.121582     0.741881    Uiso  ? H
   C1105      1.0     0.755911     0.895695     0.729466    Uiso  ? C
   H782       1.0     0.765140     0.884486     0.724756    Uiso  ? H
   H783       1.0     0.762230     0.112434     0.725148    Uiso  ? H
   N67        1.0     0.757272     0.894996     0.749353    Uiso  ? N
   C1106      1.0     0.746994     0.886202     0.761274    Uiso  ? C
   C1107      1.0     0.772398     0.105036     0.758800    Uiso  ? C
   C1108      1.0     0.756492     0.886888     0.778150    Uiso  ? C
   H784       1.0     0.735336     0.878279     0.758354    Uiso  ? H
   H785       1.0     0.783467     0.111778     0.752217    Uiso  ? H
   H786       1.0     0.752581     0.879254     0.789700    Uiso  ? H
   N68        1.0     0.770729     0.897739     0.776026    Uiso  ? N
   C1109      1.0     0.381198     0.108515     0.641204    Uiso  ? C
   C1110      1.0     0.365534     0.112754     0.650089    Uiso  ? C
   C1111      1.0     0.360063     0.114092     0.621344    Uiso  ? C
   N69        1.0     0.377791     0.109077     0.623082    Uiso  ? N
   H787       1.0     0.394449     0.105331     0.646421    Uiso  ? H
   H788       1.0     0.365466     0.116116     0.663641    Uiso  ? H
   H789       1.0     0.354785     0.117364     0.607993    Uiso  ? H
   N70        1.0     0.351603     0.115574     0.637484    Uiso  ? N
   C1112      1.0     0.334731     0.125119     0.639494    Uiso  ? C
   H790       1.0     0.338043     0.139794     0.639155    Uiso  ? H
   H791       1.0     0.327044     0.120322     0.627189    Uiso  ? H
   C1113      1.0     0.323824     0.120770     0.656991    Uiso  ? C
   C1114      1.0     0.323484     0.103128     0.663973    Uiso  ? C
   C1115      1.0     0.317939     0.135144     0.668595    Uiso  ? C
   C1116      1.0     0.313421     0.896231     0.680248    Uiso  ? C
   H792       1.0     0.326264     0.888695     0.655513    Uiso  ? H
   C1117      1.0     0.310006     0.131441     0.684802    Uiso  ? C
   H793       1.0     0.319912     0.149341     0.664676    Uiso  ? H
   C1118      1.0     0.308484     0.114023     0.691160    Uiso  ? C
   H794       1.0     0.312692     0.881350     0.683837    Uiso  ? H
   H795       1.0     0.306432     0.142592     0.692468    Uiso  ? H
   C1119      1.0     0.299530     0.108644     0.709119    Uiso  ? C
   C1120      1.0     0.303115     0.120156     0.724442    Uiso  ? C
   C1121      1.0     0.286864     0.890259     0.710484    Uiso  ? C
   C1122      1.0     0.294064     0.117129     0.740199    Uiso  ? C
   H796       1.0     0.310593     0.132449     0.722769    Uiso  ? H
   C1123      1.0     0.277619     0.888528     0.725789    Uiso  ? C
   H797       1.0     0.283594     0.883161     0.698709    Uiso  ? H
   C1124      1.0     0.282826     0.102039     0.742152    Uiso  ? C
   H798       1.0     0.297703     0.125280     0.751439    Uiso  ? H
   H799       1.0     0.269754     0.875968     0.726615    Uiso  ? H
   C1125      1.0     0.274087     0.892409     0.760065    Uiso  ? C
   H800       1.0     0.277024     0.878325     0.762993    Uiso  ? H
   H801       1.0     0.281635     0.103064     0.772001    Uiso  ? H
   N71        1.0     0.255780     0.101845     0.762349    Uiso  ? N
   C1126      1.0     0.245086     0.111952     0.751204    Uiso  ? C
   C1127      1.0     0.244228     0.893116     0.775603    Uiso  ? C
   C1128      1.0     0.228092     0.113874     0.758838    Uiso  ? C
   H802       1.0     0.248546     0.117223     0.738521    Uiso  ? H
   H803       1.0     0.248218     0.882491     0.785508    Uiso  ? H
   H804       1.0     0.215561     0.120468     0.754202    Uiso  ? H
   N72        1.0     0.228273     0.104448     0.774478    Uiso  ? N
   C1129      1.0     0.228657     0.110370     0.234981    Uiso  ? C
   C1130      1.0     0.239897     0.103035     0.247651    Uiso  ? C
   C1131      1.0     0.222925     0.878884     0.235488    Uiso  ? C
   N73        1.0     0.218398     0.893838     0.226633    Uiso  ? N
   H805       1.0     0.226363     0.124368     0.233574    Uiso  ? H
   H806       1.0     0.246125     0.111234     0.258006    Uiso  ? H
   H807       1.0     0.215696     0.865824     0.234158    Uiso  ? H
   N74        1.0     0.235131     0.881608     0.248958    Uiso  ? N
   C1132      1.0     0.240976     0.868972     0.263260    Uiso  ? C
   H808       1.0     0.228274     0.865094     0.271972    Uiso  ? H
   H809       1.0     0.244999     0.855886     0.259128    Uiso  ? H
   C1133      1.0     0.255810     0.876108     0.275684    Uiso  ? C
   C1134      1.0     0.274162     0.874893     0.269728    Uiso  ? C
   C1135      1.0     0.253273     0.879974     0.294310    Uiso  ? C
   C1136      1.0     0.289199     0.880260     0.280465    Uiso  ? C
   H810       1.0     0.277077     0.868956     0.256443    Uiso  ? H
   C1137      1.0     0.267677     0.886899     0.304654    Uiso  ? C
   H811       1.0     0.239928     0.880632     0.300272    Uiso  ? H
   C1138      1.0     0.285648     0.886659     0.299143    Uiso  ? C
   H812       1.0     0.301889     0.877833     0.273358    Uiso  ? H
   H813       1.0     0.265344     0.888939     0.319046    Uiso  ? H
   C1139      1.0     0.301926     0.892393     0.311276    Uiso  ? C
   C1140      1.0     0.299466     0.107425     0.325859    Uiso  ? C
   C1141      1.0     0.320234     0.888521     0.305984    Uiso  ? C
   C1142      1.0     0.314067     0.112661     0.336947    Uiso  ? C
   H814       1.0     0.285968     0.111267     0.329387    Uiso  ? H
   C1143      1.0     0.334978     0.894825     0.316164    Uiso  ? C
   H815       1.0     0.324282     0.879576     0.295084    Uiso  ? H
   C1144      1.0     0.332586     0.108771     0.331812    Uiso  ? C
   H816       1.0     0.312523     0.119261     0.349595    Uiso  ? H
   H817       1.0     0.348151     0.891019     0.311939    Uiso  ? H
   C1145      1.0     0.348032     0.116591     0.342667    Uiso  ? C
   H818       1.0     0.358891     0.120057     0.333318    Uiso  ? H
   H819       1.0     0.343337     0.129775     0.348417    Uiso  ? H
   N75        1.0     0.355635     0.105271     0.357023    Uiso  ? N
   C1146      1.0     0.350553     0.885497     0.363944    Uiso  ? C
   C1147      1.0     0.368451     0.112446     0.368726    Uiso  ? C
   C1148      1.0     0.362798     0.882256     0.378037    Uiso  ? C
   H820       1.0     0.339687     0.876808     0.358389    Uiso  ? H
   H821       1.0     0.374515     0.125803     0.366811    Uiso  ? H
   H822       1.0     0.365121     0.870746     0.386431    Uiso  ? H
   N76        1.0     0.373805     0.896658     0.380847    Uiso  ? N
   C1149      1.0     0.763182     0.877554     0.232094    Uiso  ? C
   C1150      1.0     0.746860     0.880524     0.240085    Uiso  ? C
   C1151      1.0     0.754267     0.107284     0.223467    Uiso  ? C
   N77        1.0     0.767302     0.892049     0.221856    Uiso  ? N
   H823       1.0     0.773581     0.867265     0.233336    Uiso  ? H
   H824       1.0     0.737718     0.872218     0.248523    Uiso  ? H
   H825       1.0     0.751812     0.118626     0.214663    Uiso  ? H
   N78        1.0     0.740704     0.897384     0.234910    Uiso  ? N
   C1152      1.0     0.723361     0.109125     0.236820    Uiso  ? C
   H826       1.0     0.724615     0.124563     0.232511    Uiso  ? H
   H827       1.0     0.711919     0.897158     0.228819    Uiso  ? H
   C1153      1.0     0.716247     0.108527     0.256143    Uiso  ? C
   C1154      1.0     0.696631     0.898155     0.259401    Uiso  ? C
   C1155      1.0     0.726043     0.114239     0.271541    Uiso  ? C
   C1156      1.0     0.689480     0.897339     0.276657    Uiso  ? C
   H828       1.0     0.688671     0.894341     0.248011    Uiso  ? H
   C1157      1.0     0.718099     0.114609     0.289125    Uiso  ? C
   H829       1.0     0.739746     0.119391     0.268885    Uiso  ? H
   C1158      1.0     0.700080     0.106930     0.291507    Uiso  ? C
   H830       1.0     0.675226     0.893939     0.280293    Uiso  ? H
   H831       1.0     0.725862     0.120057     0.301316    Uiso  ? H
   C1159      1.0     0.690692     0.108206     0.309790    Uiso  ? C
   C1160      1.0     0.690580     0.124943     0.318887    Uiso  ? C
   C1161      1.0     0.681324     0.889185     0.316438    Uiso  ? C
   C1162      1.0     0.680865     0.125864     0.335553    Uiso  ? C
   H832       1.0     0.696493     0.137448     0.312973    Uiso  ? H
   C1163      1.0     0.673254     0.889603     0.333742    Uiso  ? C
   H833       1.0     0.682062     0.877224     0.308776    Uiso  ? H
   C1164      1.0     0.674191     0.109731     0.343400    Uiso  ? C
   H834       1.0     0.678276     0.139444     0.342340    Uiso  ? H
   H835       1.0     0.666994     0.878273     0.339472    Uiso  ? H
   C1165      1.0     0.665526     0.109389     0.362389    Uiso  ? C
   H836       1.0     0.671632     0.895545     0.370783    Uiso  ? H
   H837       1.0     0.668792     0.123791     0.367354    Uiso  ? H
   N79        1.0     0.646042     0.105456     0.362091    Uiso  ? N
   C1166      1.0     0.633835     0.114585     0.351486    Uiso  ? C
   C1167      1.0     0.635483     0.892577     0.374744    Uiso  ? C
   C1168      1.0     0.616659     0.110257     0.357498    Uiso  ? C
   H838       1.0     0.637462     0.123002     0.339638    Uiso  ? H
   H839       1.0     0.640286     0.883549     0.385701    Uiso  ? H
   H840       1.0     0.604174     0.112966     0.351520    Uiso  ? H
   N80        1.0     0.617729     0.896016     0.372736    Uiso  ? N
   C1169      1.0     0.882170     0.373737     0.638526    Uiso  ? C
   C1170      1.0     0.881259     0.357074     0.647406    Uiso  ? C
   C1171      1.0     0.888380     0.352372     0.620007    Uiso  ? C
   N81        1.0     0.887020     0.370176     0.621274    Uiso  ? N
   H841       1.0     0.879097     0.386517     0.644246    Uiso  ? H
   H842       1.0     0.876507     0.355601     0.660597    Uiso  ? H
   H843       1.0     0.890243     0.346131     0.607524    Uiso  ? H
   N82        1.0     0.885364     0.343340     0.635812    Uiso  ? N
   C1172      1.0     0.880979     0.324106     0.638507    Uiso  ? C
   H844       1.0     0.867027     0.321775     0.633330    Uiso  ? H
   H845       1.0     0.890425     0.316652     0.629380    Uiso  ? H
   C1173      1.0     0.883919     0.319468     0.658474    Uiso  ? C
   C1174      1.0     0.104235     0.316033     0.665405    Uiso  ? C
   C1175      1.0     0.868885     0.319328     0.670652    Uiso  ? C
   C1176      1.0     0.106326     0.309812     0.683188    Uiso  ? C
   H846       1.0     0.114895     0.316162     0.656715    Uiso  ? H
   C1177      1.0     0.871275     0.312263     0.687778    Uiso  ? C
   H847       1.0     0.855709     0.324379     0.666140    Uiso  ? H
   C1178      1.0     0.888077     0.306175     0.694126    Uiso  ? C
   H848       1.0     0.120063     0.307609     0.688991    Uiso  ? H
   H849       1.0     0.859040     0.310863     0.696413    Uiso  ? H
   C1179      1.0     0.891546     0.300098     0.712205    Uiso  ? C
   C1180      1.0     0.106986     0.285295     0.716393    Uiso  ? C
   C1181      1.0     0.880390     0.306582     0.727276    Uiso  ? C
   C1182      1.0     0.109560     0.278888     0.734813    Uiso  ? C
   H850       1.0     0.115365     0.280118     0.705640    Uiso  ? H
   C1183      1.0     0.884047     0.300741     0.745075    Uiso  ? C
   H851       1.0     0.870583     0.317746     0.725103    Uiso  ? H
   C1184      1.0     0.896033     0.286216     0.748412    Uiso  ? C
   H852       1.0     0.119014     0.268024     0.735924    Uiso  ? H
   H853       1.0     0.876207     0.305797     0.756022    Uiso  ? H
   C1185      1.0     0.898462     0.278512     0.768134    Uiso  ? C
   H854       1.0     0.116125     0.281349     0.771720    Uiso  ? H
   H855       1.0     0.890347     0.285821     0.778202    Uiso  ? H
   N83        1.0     0.893660     0.259873     0.770420    Uiso  ? N
   C1186      1.0     0.878510     0.251370     0.764649    Uiso  ? C
   C1187      1.0     0.106479     0.246085     0.779501    Uiso  ? C
   C1188      1.0     0.879654     0.233308     0.767481    Uiso  ? C
   H856       1.0     0.870131     0.257127     0.754526    Uiso  ? H
   H857       1.0     0.118760     0.248918     0.787023    Uiso  ? H
   H858       1.0     0.871378     0.223028     0.762757    Uiso  ? H
   N84        1.0     0.895058     0.229909     0.777120    Uiso  ? N
   C1189      1.0     0.892099     0.619076     0.640405    Uiso  ? C
   C1190      1.0     0.887459     0.635235     0.646768    Uiso  ? C
   C1191      1.0     0.883632     0.634849     0.617122    Uiso  ? C
   N85        1.0     0.889407     0.618747     0.622600    Uiso  ? N
   H859       1.0     0.896611     0.608052     0.648435    Uiso  ? H
   H860       1.0     0.888543     0.640474     0.660889    Uiso  ? H
   H861       1.0     0.880755     0.639866     0.603883    Uiso  ? H
   N86        1.0     0.881743     0.645142     0.632141    Uiso  ? N
   C1192      1.0     0.873309     0.663342     0.632616    Uiso  ? C
   H862       1.0     0.878892     0.671360     0.620956    Uiso  ? H
   H863       1.0     0.859382     0.662340     0.627788    Uiso  ? H
   C1193      1.0     0.875312     0.674700     0.649861    Uiso  ? C
   C1194      1.0     0.860347     0.679666     0.659156    Uiso  ? C
   C1195      1.0     0.892524     0.679773     0.655386    Uiso  ? C
   C1196      1.0     0.861224     0.689976     0.675127    Uiso  ? C
   H864       1.0     0.846499     0.676743     0.653775    Uiso  ? H
   C1197      1.0     0.893361     0.690283     0.670828    Uiso  ? C
   H865       1.0     0.107310     0.676090     0.646380    Uiso  ? H
   C1198      1.0     0.878716     0.695896     0.681530    Uiso  ? C
   H866       1.0     0.849176     0.695827     0.681670    Uiso  ? H
   H867       1.0     0.110668     0.692748     0.675181    Uiso  ? H
   C1199      1.0     0.881843     0.704929     0.699197    Uiso  ? C
   C1200      1.0     0.870802     0.718775     0.704223    Uiso  ? C
   C1201      1.0     0.896300     0.700311     0.710866    Uiso  ? C
   C1202      1.0     0.874658     0.728793     0.720492    Uiso  ? C
   H868       1.0     0.859538     0.722358     0.695881    Uiso  ? H
   C1203      1.0     0.102860     0.708881     0.727703    Uiso  ? C
   H869       1.0     0.107528     0.689261     0.707171    Uiso  ? H
   C1204      1.0     0.889000     0.723335     0.732531    Uiso  ? C
   H870       1.0     0.863082     0.736218     0.724753    Uiso  ? H
   H871       1.0     0.114272     0.704212     0.735699    Uiso  ? H
   C1205      1.0     0.889734     0.729748     0.752510    Uiso  ? C
   H872       1.0     0.876788     0.726151     0.757146    Uiso  ? H
   H873       1.0     0.103031     0.720865     0.759813    Uiso  ? H
   N87        1.0     0.891100     0.749621     0.755358    Uiso  ? N
   C1206      1.0     0.897000     0.762284     0.743310    Uiso  ? C
   C1207      1.0     0.892353     0.758078     0.771962    Uiso  ? C
   C1208      1.0     0.103689     0.778220     0.752379    Uiso  ? C
   H874       1.0     0.897058     0.760444     0.728563    Uiso  ? H
   H875       1.0     0.890557     0.751547     0.785203    Uiso  ? H
   H876       1.0     0.106774     0.791285     0.747655    Uiso  ? H
   N88        1.0     0.102478     0.774991     0.770497    Uiso  ? N
   C1209      1.0     0.121768     0.628520     0.375128    Uiso  ? C
   C1210      1.0     0.118607     0.644012     0.364133    Uiso  ? C
   C1211      1.0     0.891761     0.639054     0.380414    Uiso  ? C
   N89        1.0     0.107257     0.625639     0.384570    Uiso  ? N
   H877       1.0     0.134910     0.623014     0.377708    Uiso  ? H
   H878       1.0     0.128347     0.651656     0.355425    Uiso  ? H
   H879       1.0     0.879083     0.640127     0.387382    Uiso  ? H
   N90        1.0     0.102000     0.649979     0.368823    Uiso  ? N
   C1212      1.0     0.892434     0.668546     0.364873    Uiso  ? C
   H880       1.0     0.877483     0.668969     0.367332    Uiso  ? H
   H881       1.0     0.103426     0.677331     0.374169    Uiso  ? H
   C1213      1.0     0.895722     0.673848     0.345444    Uiso  ? C
   C1214      1.0     0.883474     0.670475     0.331375    Uiso  ? C
   C1215      1.0     0.113352     0.685557     0.342466    Uiso  ? C
   C1216      1.0     0.884124     0.680603     0.315257    Uiso  ? C
   H882       1.0     0.871825     0.660520     0.333122    Uiso  ? H
   C1217      1.0     0.114315     0.694625     0.324557    Uiso  ? C
   H883       1.0     0.123673     0.689467     0.353129    Uiso  ? H
   C1218      1.0     0.101538     0.692806     0.311181    Uiso  ? C
   H884       1.0     0.872607     0.679330     0.306373    Uiso  ? H
   H885       1.0     0.125789     0.703097     0.322038    Uiso  ? H
   C1219      1.0     0.102125     0.703675     0.294093    Uiso  ? C
   C1220      1.0     0.118212     0.702441     0.283463    Uiso  ? C
   C1221      1.0     0.883257     0.712336     0.286364    Uiso  ? C
   C1222      1.0     0.118587     0.711503     0.266711    Uiso  ? C
   H886       1.0     0.129328     0.693700     0.287567    Uiso  ? H
   C1223      1.0     0.884025     0.721439     0.269306    Uiso  ? C
   H887       1.0     0.870017     0.712456     0.292353    Uiso  ? H
   C1224      1.0     0.103869     0.720865     0.259805    Uiso  ? C
   H888       1.0     0.132178     0.710921     0.260048    Uiso  ? H
   H889       1.0     0.871795     0.727865     0.263792    Uiso  ? H
   C1225      1.0     0.105185     0.726706     0.239609    Uiso  ? C
   H890       1.0     0.118148     0.722349     0.233006    Uiso  ? H
   H891       1.0     0.890375     0.722509     0.232061    Uiso  ? H
   N91        1.0     0.104694     0.746597     0.237960    Uiso  ? N
   C1226      1.0     0.116234     0.758032     0.244716    Uiso  ? C
   C1227      1.0     0.892079     0.755918     0.224890    Uiso  ? C
   C1228      1.0     0.114241     0.774103     0.236415    Uiso  ? C
   H892       1.0     0.126614     0.753213     0.253594    Uiso  ? H
   H893       1.0     0.881184     0.749640     0.216785    Uiso  ? H
   H894       1.0     0.123167     0.784905     0.238044    Uiso  ? H
   N92        1.0     0.101943     0.772883     0.222927    Uiso  ? N
   C1229      1.0     0.898376     0.364620     0.367461    Uiso  ? C
   C1230      1.0     0.107416     0.356843     0.350662    Uiso  ? C
   C1231      1.0     0.114334     0.385453     0.351893    Uiso  ? C
   N93        1.0     0.106888     0.382233     0.368204    Uiso  ? N
   H895       1.0     0.891100     0.357879     0.378728    Uiso  ? H
   H896       1.0     0.104985     0.342709     0.345214    Uiso  ? H
   H897       1.0     0.120785     0.397716     0.348647    Uiso  ? H
   N94        1.0     0.114325     0.371438     0.340839    Uiso  ? N
   C1232      1.0     0.123141     0.371059     0.322270    Uiso  ? C
   H898       1.0     0.116389     0.381667     0.313489    Uiso  ? H
   H899       1.0     0.138536     0.374477     0.323426    Uiso  ? H
   C1233      1.0     0.121559     0.352843     0.313002    Uiso  ? C
   C1234      1.0     0.108811     0.349207     0.298600    Uiso  ? C
   C1235      1.0     0.134882     0.339861     0.316828    Uiso  ? C
   C1236      1.0     0.110625     0.332186     0.289443    Uiso  ? C
   H900       1.0     0.894981     0.359132     0.294557    Uiso  ? H
   C1237      1.0     0.135419     0.322697     0.307918    Uiso  ? C
   H901       1.0     0.142852     0.340882     0.330749    Uiso  ? H
   C1238      1.0     0.124050     0.319116     0.292373    Uiso  ? C
   H902       1.0     0.895666     0.329919     0.279746    Uiso  ? H
   H903       1.0     0.146307     0.313786     0.311618    Uiso  ? H
   C1239      1.0     0.125333     0.302616     0.281497    Uiso  ? C
   C1240      1.0     0.122067     0.304540     0.263466    Uiso  ? C
   C1241      1.0     0.129893     0.285997     0.288077    Uiso  ? C
   C1242      1.0     0.123003     0.290772     0.250976    Uiso  ? C
   H904       1.0     0.119179     0.317862     0.258334    Uiso  ? H
   C1243      1.0     0.133585     0.270940     0.275614    Uiso  ? C
   H905       1.0     0.131748     0.281934     0.302597    Uiso  ? H
   C1244      1.0     0.128758     0.273364     0.257293    Uiso  ? C
   H906       1.0     0.119717     0.293683     0.236994    Uiso  ? H
   H907       1.0     0.138561     0.257774     0.281078    Uiso  ? H
   C1245      1.0     0.132716     0.258200     0.243460    Uiso  ? C
   H908       1.0     0.138902     0.265211     0.230901    Uiso  ? H
   H909       1.0     0.143005     0.248659     0.247734    Uiso  ? H
   N95        1.0     0.116479     0.249271     0.238177    Uiso  ? N
   C1246      1.0     0.895484     0.251596     0.242996    Uiso  ? C
   C1247      1.0     0.116359     0.235677     0.226109    Uiso  ? C
   C1248      1.0     0.884922     0.238954     0.232308    Uiso  ? C
   H910       1.0     0.891457     0.264305     0.249160    Uiso  ? H
   H911       1.0     0.129215     0.230102     0.220000    Uiso  ? H
   H912       1.0     0.869526     0.238114     0.231550    Uiso  ? H
   N96        1.0     0.896429     0.229079     0.221441    Uiso  ? N
