
#======================================================================
# CRYSTAL DATA
#----------------------------------------------------------------------
data_VESTA_phase_1

_chemical_name_common                  ' Atoms. Timestep: 0'
_cell_length_a                         58.288185
_cell_length_b                         58.288185
_cell_length_c                         58.288185
_cell_angle_alpha                      90.000000
_cell_angle_beta                       90.000000
_cell_angle_gamma                      90.000000
_cell_volume                           1.000000
_space_group_name_H-M_alt              'P 1'
_space_group_IT_number                 1

loop_
_space_group_symop_operation_xyz
   'x, y, z'

loop_
   _atom_site_label
   _atom_site_occupancy
   _atom_site_fract_x
   _atom_site_fract_y
   _atom_site_fract_z
   _atom_site_adp_type
   _atom_site_U_iso_or_equiv
   _atom_site_type_symbol
   C1         1.0     0.874510     0.238284     0.191701    Uiso  ? C
   C2         1.0     0.858344     0.252042     0.177182    Uiso  ? C
   C3         1.0     0.855232     0.275376     0.181323    Uiso  ? C
   H1         1.0     0.864544     0.284260     0.194775    Uiso  ? H
   C4         1.0     0.839299     0.288102     0.168442    Uiso  ? C
   H2         1.0     0.836573     0.306353     0.171528    Uiso  ? H
   C5         1.0     0.826813     0.276942     0.151639    Uiso  ? C
   H3         1.0     0.815371     0.287328     0.142615    Uiso  ? H
   C6         1.0     0.830870     0.254299     0.145762    Uiso  ? C
   C7         1.0     0.847443     0.241800     0.157968    Uiso  ? C
   H4         1.0     0.851120     0.224282     0.154278    Uiso  ? H
   C8         1.0     0.816574     0.243263     0.127072    Uiso  ? C
   C9         1.0     0.873332     0.189323     0.244321    Uiso  ? C
   C10        1.0     0.853872     0.177865     0.255657    Uiso  ? C
   C11        1.0     0.845319     0.186658     0.276393    Uiso  ? C
   H5         1.0     0.852806     0.202192     0.283598    Uiso  ? H
   C12        1.0     0.824764     0.177605     0.285818    Uiso  ? C
   H6         1.0     0.817382     0.185952     0.301416    Uiso  ? H
   C13        1.0     0.812247     0.160531     0.273851    Uiso  ? C
   H7         1.0     0.795167     0.155101     0.279290    Uiso  ? H
   C14        1.0     0.822038     0.151008     0.253613    Uiso  ? C
   C15        1.0     0.843434     0.158373     0.245796    Uiso  ? C
   H8         1.0     0.851240     0.150903     0.230051    Uiso  ? H
   C16        1.0     0.808648     0.133948     0.240636    Uiso  ? C
   C17        1.0     0.129544     0.187507     0.244844    Uiso  ? C
   C18        1.0     0.146258     0.173061     0.256487    Uiso  ? C
   C19        1.0     0.149878     0.175875     0.280001    Uiso  ? C
   H9         1.0     0.141784     0.190222     0.288892    Uiso  ? H
   C20        1.0     0.165701     0.162399     0.291276    Uiso  ? C
   H10        1.0     0.169678     0.164080     0.308914    Uiso  ? H
   C21        1.0     0.178601     0.145863     0.279310    Uiso  ? C
   H11        1.0     0.191528     0.135638     0.288638    Uiso  ? H
   C22        1.0     0.175186     0.142624     0.255616    Uiso  ? C
   C23        1.0     0.158024     0.155630     0.244380    Uiso  ? C
   H12        1.0     0.155326     0.153527     0.226130    Uiso  ? H
   C24        1.0     0.188313     0.125093     0.242375    Uiso  ? C
   C25        1.0     0.147924     0.220009     0.204367    Uiso  ? C
   C26        1.0     0.170662     0.226262     0.196402    Uiso  ? C
   C27        1.0     0.184614     0.239405     0.210970    Uiso  ? C
   H13        1.0     0.180136     0.242946     0.229645    Uiso  ? H
   C28        1.0     0.206301     0.246980     0.202884    Uiso  ? C
   H14        1.0     0.216840     0.258138     0.213230    Uiso  ? H
   C29        1.0     0.212437     0.243313     0.180195    Uiso  ? C
   H15        1.0     0.228476     0.249941     0.174334    Uiso  ? H
   C30        1.0     0.198687     0.229347     0.165838    Uiso  ? C
   C31        1.0     0.178285     0.220443     0.174521    Uiso  ? C
   H16        1.0     0.168240     0.208526     0.164260    Uiso  ? H
   C32        1.0     0.205990     0.222915     0.142253    Uiso  ? C
   C33        1.0     0.775477     0.208798     0.857460    Uiso  ? C
   C34        1.0     0.769518     0.202494     0.833647    Uiso  ? C
   C35        1.0     0.757358     0.218025     0.819509    Uiso  ? C
   H17        1.0     0.751732     0.234567     0.825532    Uiso  ? H
   C36        1.0     0.750056     0.210771     0.797756    Uiso  ? C
   H18        1.0     0.740814     0.222924     0.786890    Uiso  ? H
   C37        1.0     0.757034     0.189137     0.789465    Uiso  ? C
   H19        1.0     0.753263     0.184499     0.772393    Uiso  ? H
   C38        1.0     0.768724     0.174007     0.803703    Uiso  ? C
   C39        1.0     0.774687     0.180188     0.826146    Uiso  ? C
   H20        1.0     0.782552     0.166802     0.837188    Uiso  ? H
   C40        1.0     0.775020     0.150644     0.794716    Uiso  ? C
   C41        1.0     0.764148     0.194686     0.127127    Uiso  ? C
   C42        1.0     0.749440     0.178716     0.140875    Uiso  ? C
   C43        1.0     0.726508     0.177401     0.137720    Uiso  ? C
   H21        1.0     0.717962     0.188163     0.125139    Uiso  ? H
   C44        1.0     0.713042     0.162585     0.151691    Uiso  ? C
   H22        1.0     0.694683     0.160477     0.148374    Uiso  ? H
   C45        1.0     0.723886     0.148262     0.167536    Uiso  ? C
   H23        1.0     0.713003     0.136912     0.178151    Uiso  ? H
   C46        1.0     0.747721     0.148934     0.170324    Uiso  ? C
   C47        1.0     0.759940     0.164797     0.157415    Uiso  ? C
   H24        1.0     0.778117     0.165550     0.161407    Uiso  ? H
   C48        1.0     0.759496     0.133259     0.186623    Uiso  ? C
   C49        1.0     0.815716     0.243531     0.874786    Uiso  ? C
   C50        1.0     0.829462     0.256601     0.858599    Uiso  ? C
   C51        1.0     0.823677     0.279166     0.853215    Uiso  ? C
   H25        1.0     0.808790     0.287866     0.859949    Uiso  ? H
   C52        1.0     0.836697     0.291691     0.836785    Uiso  ? C
   H26        1.0     0.831460     0.308295     0.831086    Uiso  ? H
   C53        1.0     0.854458     0.281238     0.825352    Uiso  ? C
   H27        1.0     0.863731     0.290912     0.812814    Uiso  ? H
   C54        1.0     0.860197     0.257977     0.829823    Uiso  ? C
   C55        1.0     0.847656     0.245925     0.846665    Uiso  ? C
   H28        1.0     0.851530     0.227690     0.850439    Uiso  ? H
   C56        1.0     0.878563     0.246361     0.816292    Uiso  ? C
   C57        1.0     0.761568     0.873768     0.188717    Uiso  ? C
   C58        1.0     0.748560     0.858283     0.173621    Uiso  ? C
   C59        1.0     0.724166     0.858314     0.174265    Uiso  ? C
   H29        1.0     0.715121     0.867532     0.188083    Uiso  ? H
   C60        1.0     0.711438     0.844592     0.159401    Uiso  ? C
   H30        1.0     0.693784     0.842113     0.162249    Uiso  ? H
   C61        1.0     0.722080     0.831303     0.143087    Uiso  ? C
   H31        1.0     0.711930     0.820373     0.132044    Uiso  ? H
   C62        1.0     0.746057     0.831638     0.141377    Uiso  ? C
   C63        1.0     0.759427     0.844970     0.156942    Uiso  ? C
   H32        1.0     0.778445     0.845429     0.155772    Uiso  ? H
   C64        1.0     0.757403     0.817451     0.123847    Uiso  ? C
   C65        1.0     0.790366     0.860736     0.231956    Uiso  ? C
   C66        1.0     0.798883     0.837978     0.241307    Uiso  ? C
   C67        1.0     0.788498     0.827496     0.259823    Uiso  ? C
   H33        1.0     0.771665     0.833115     0.266698    Uiso  ? H
   C68        1.0     0.798541     0.808549     0.270676    Uiso  ? C
   H34        1.0     0.789800     0.800935     0.284743    Uiso  ? H
   C69        1.0     0.818393     0.799401     0.261407    Uiso  ? C
   H35        1.0     0.824473     0.783808     0.269630    Uiso  ? H
   C70        1.0     0.828079     0.809182     0.241786    Uiso  ? C
   C71        1.0     0.817643     0.827496     0.230883    Uiso  ? C
   H36        1.0     0.826163     0.835057     0.216282    Uiso  ? H
   C72        1.0     0.848987     0.798929     0.232200    Uiso  ? C
   C73        1.0     0.874795     0.199025     0.763049    Uiso  ? C
   C74        1.0     0.858488     0.185484     0.748410    Uiso  ? C
   C75        1.0     0.853472     0.192425     0.725467    Uiso  ? C
   H37        1.0     0.861829     0.206885     0.717665    Uiso  ? H
   C76        1.0     0.837242     0.180395     0.712670    Uiso  ? C
   H38        1.0     0.833994     0.184435     0.695441    Uiso  ? H
   C77        1.0     0.825315     0.161469     0.722358    Uiso  ? C
   H39        1.0     0.813285     0.152048     0.711605    Uiso  ? H
   C78        1.0     0.829242     0.155507     0.745193    Uiso  ? C
   C79        1.0     0.846119     0.167305     0.758208    Uiso  ? C
   H40        1.0     0.848560     0.163012     0.775973    Uiso  ? H
   C80        1.0     0.814683     0.138227     0.756201    Uiso  ? C
   C81        1.0     0.137152     0.241258     0.812346    Uiso  ? C
   C82        1.0     0.156139     0.251976     0.824976    Uiso  ? C
   C83        1.0     0.166265     0.272000     0.816645    Uiso  ? C
   H41        1.0     0.161168     0.279464     0.801002    Uiso  ? H
   C84        1.0     0.185978     0.280470     0.827514    Uiso  ? C
   H42        1.0     0.194592     0.294980     0.819769    Uiso  ? H
   C85        1.0     0.194817     0.269424     0.846903    Uiso  ? C
   H43        1.0     0.210068     0.275719     0.854682    Uiso  ? H
   C86        1.0     0.184837     0.249300     0.855679    Uiso  ? C
   C87        1.0     0.165316     0.240679     0.844562    Uiso  ? C
   H44        1.0     0.158269     0.224261     0.849835    Uiso  ? H
   C88        1.0     0.195999     0.236848     0.874540    Uiso  ? C
   C89        1.0     0.238511     0.182364     0.128659    Uiso  ? C
   C90        1.0     0.250342     0.169962     0.147862    Uiso  ? C
   C91        1.0     0.273005     0.176385     0.153477    Uiso  ? C
   H45        1.0     0.281430     0.191426     0.146102    Uiso  ? H
   C92        1.0     0.284146     0.164958     0.171528    Uiso  ? C
   H46        1.0     0.300761     0.170159     0.176580    Uiso  ? H
   C93        1.0     0.273104     0.148367     0.184401    Uiso  ? C
   H47        1.0     0.282112     0.139127     0.197297    Uiso  ? H
   C94        1.0     0.250129     0.142412     0.179687    Uiso  ? C
   C95        1.0     0.239036     0.152924     0.160578    Uiso  ? C
   H48        1.0     0.222438     0.147256     0.155621    Uiso  ? H
   C96        1.0     0.238151     0.125214     0.192751    Uiso  ? C
   O1         1.0     0.874718     0.216447     0.189744    Uiso  ? O
   O2         1.0     0.887808     0.248073     0.205515    Uiso  ? O
   O3         1.0     0.884845     0.178425     0.229458    Uiso  ? O
   O4         1.0     0.876442     0.210858     0.246884    Uiso  ? O
   O5         1.0     0.116198     0.178153     0.230528    Uiso  ? O
   O6         1.0     0.132153     0.209512     0.245061    Uiso  ? O
   O7         1.0     0.135760     0.206535     0.192457    Uiso  ? O
   O8         1.0     0.140592     0.227467     0.223968    Uiso  ? O
   O9         1.0     0.785630     0.194360     0.869309    Uiso  ? O
   O10        1.0     0.772562     0.228984     0.864880    Uiso  ? O
   O11        1.0     0.785887     0.192242     0.128089    Uiso  ? O
   O12        1.0     0.755042     0.209185     0.112984    Uiso  ? O
   O13        1.0     0.824363     0.226286     0.115661    Uiso  ? O
   O14        1.0     0.795735     0.250088     0.123383    Uiso  ? O
   O15        1.0     0.824613     0.227661     0.886807    Uiso  ? O
   O16        1.0     0.794396     0.246138     0.874592    Uiso  ? O
   O17        1.0     0.783545     0.872778     0.189264    Uiso  ? O
   O18        1.0     0.751041     0.888929     0.200185    Uiso  ? O
   O19        1.0     0.798855     0.867940     0.212772    Uiso  ? O
   O20        1.0     0.775365     0.872658     0.241621    Uiso  ? O
   O21        1.0     0.819372     0.119142     0.228264    Uiso  ? O
   O22        1.0     0.786843     0.134231     0.241223    Uiso  ? O
   O23        1.0     0.780893     0.131635     0.186437    Uiso  ? O
   O24        1.0     0.747829     0.120079     0.199937    Uiso  ? O
   O25        1.0     0.875288     0.196374     0.784736    Uiso  ? O
   O26        1.0     0.888678     0.212688     0.753250    Uiso  ? O
   O27        1.0     0.891045     0.231182     0.825889    Uiso  ? O
   O28        1.0     0.880434     0.249801     0.794900    Uiso  ? O
   O29        1.0     0.121997     0.229407     0.823046    Uiso  ? O
   O30        1.0     0.136370     0.243817     0.790733    Uiso  ? O
   O31        1.0     0.135520     0.190893     0.791704    Uiso  ? O
   O32        1.0     0.141059     0.222070     0.770862    Uiso  ? O
   O33        1.0     0.184019     0.224691     0.887670    Uiso  ? O
   O34        1.0     0.217866     0.235977     0.874830    Uiso  ? O
   O35        1.0     0.199749     0.203618     0.134025    Uiso  ? O
   O36        1.0     0.220992     0.235654     0.132071    Uiso  ? O
   O37        1.0     0.216619     0.182321     0.127299    Uiso  ? O
   O38        1.0     0.250355     0.194962     0.115288    Uiso  ? O
   O39        1.0     0.218311     0.180286     0.873320    Uiso  ? O
   O40        1.0     0.250661     0.194107     0.887399    Uiso  ? O
   O41        1.0     0.802590     0.871460     0.784057    Uiso  ? O
   O42        1.0     0.791346     0.884039     0.749858    Uiso  ? O
   O43        1.0     0.785396     0.875439     0.803298    Uiso  ? O
   O44        1.0     0.755193     0.894911     0.792162    Uiso  ? O
   O45        1.0     0.781464     0.134864     0.808199    Uiso  ? O
   O46        1.0     0.774217     0.146758     0.773074    Uiso  ? O
   O47        1.0     0.822718     0.124516     0.771017    Uiso  ? O
   O48        1.0     0.793141     0.140020     0.754137    Uiso  ? O
   O49        1.0     0.890702     0.170831     0.174156    Uiso  ? O
   O50        1.0     0.822505     0.169480     0.895848    Uiso  ? O
   O51        1.0     0.831587     0.108099     0.177189    Uiso  ? O
   O52        1.0     0.898351     0.173250     0.825354    Uiso  ? O
   O53        1.0     0.166676     0.174214     0.894884    Uiso  ? O
   O54        1.0     0.829947     0.109732     0.823858    Uiso  ? O
   Zn1        1.0     0.103251     0.194112     0.200312    Uiso  ? Zn
   Zn2        1.0     0.105327     0.231817     0.234154    Uiso  ? Zn
   Zn3        1.0     0.804544     0.199747     0.900000    Uiso  ? Zn
   Zn4        1.0     0.771278     0.237641     0.100379    Uiso  ? Zn
   Zn5        1.0     0.803194     0.105761     0.199534    Uiso  ? Zn
   Zn6        1.0     0.762659     0.107826     0.232019    Uiso  ? Zn
   Zn7        1.0     0.105627     0.202486     0.806370    Uiso  ? Zn
   Zn8        1.0     0.107534     0.238257     0.769455    Uiso  ? Zn
   Zn9        1.0     0.196909     0.194024     0.898813    Uiso  ? Zn
   Zn10       1.0     0.238276     0.226676     0.100956    Uiso  ? Zn
   Zn11       1.0     0.805304     0.109384     0.798185    Uiso  ? Zn
   Zn12       1.0     0.770347     0.112626     0.762144    Uiso  ? Zn
   C97        1.0     0.119038     0.760186     0.811107    Uiso  ? C
   C98        1.0     0.133422     0.745706     0.826956    Uiso  ? C
   C99        1.0     0.135032     0.721806     0.823621    Uiso  ? C
   H49        1.0     0.126363     0.712962     0.810107    Uiso  ? H
   C100       1.0     0.150577     0.708932     0.836977    Uiso  ? C
   H50        1.0     0.153659     0.690818     0.833278    Uiso  ? H
   C101       1.0     0.163865     0.719531     0.854066    Uiso  ? C
   H51        1.0     0.176060     0.710409     0.864231    Uiso  ? H
   C102       1.0     0.161470     0.743206     0.858153    Uiso  ? C
   C103       1.0     0.146320     0.756396     0.844716    Uiso  ? C
   H52        1.0     0.144554     0.773981     0.848233    Uiso  ? H
   C104       1.0     0.176481     0.754840     0.875225    Uiso  ? C
   C105       1.0     0.130309     0.804673     0.755748    Uiso  ? C
   C106       1.0     0.150756     0.815078     0.744905    Uiso  ? C
   C107       1.0     0.160287     0.805195     0.725179    Uiso  ? C
   H53        1.0     0.151731     0.790979     0.716769    Uiso  ? H
   C108       1.0     0.181624     0.812937     0.717279    Uiso  ? C
   H54        1.0     0.188178     0.804816     0.702387    Uiso  ? H
   C109       1.0     0.192470     0.831461     0.727619    Uiso  ? C
   H55        1.0     0.208238     0.837278     0.719324    Uiso  ? H
   C110       1.0     0.181866     0.842731     0.745888    Uiso  ? C
   C111       1.0     0.160223     0.835944     0.754036    Uiso  ? C
   H56        1.0     0.152605     0.844198     0.769371    Uiso  ? H
   C112       1.0     0.193251     0.861712     0.758143    Uiso  ? C
   C113       1.0     0.857085     0.804274     0.762176    Uiso  ? C
   C114       1.0     0.835695     0.814668     0.752795    Uiso  ? C
   C115       1.0     0.825499     0.805981     0.732400    Uiso  ? C
   H57        1.0     0.830486     0.789286     0.726165    Uiso  ? H
   C116       1.0     0.807310     0.817547     0.721935    Uiso  ? C
   H58        1.0     0.800283     0.810019     0.707210    Uiso  ? H
   C117       1.0     0.800173     0.839030     0.730544    Uiso  ? C
   H59        1.0     0.787076     0.848927     0.722684    Uiso  ? H
   C118       1.0     0.809923     0.847349     0.751714    Uiso  ? C
   C119       1.0     0.828076     0.835300     0.761778    Uiso  ? C
   H60        1.0     0.835907     0.842647     0.777183    Uiso  ? H
   C120       1.0     0.800676     0.868667     0.762101    Uiso  ? C
   C121       1.0     0.862172     0.766779     0.803818    Uiso  ? C
   C122       1.0     0.842981     0.755476     0.815444    Uiso  ? C
   C123       1.0     0.835882     0.732635     0.809326    Uiso  ? C
   H61        1.0     0.844250     0.723840     0.795361    Uiso  ? H
   C124       1.0     0.818394     0.721897     0.820929    Uiso  ? C
   H62        1.0     0.813313     0.704780     0.814444    Uiso  ? H
   C125       1.0     0.806967     0.732866     0.839020    Uiso  ? C
   H63        1.0     0.793334     0.724099     0.847612    Uiso  ? H
   C126       1.0     0.813548     0.755234     0.845450    Uiso  ? C
   C127       1.0     0.832668     0.766014     0.834426    Uiso  ? C
   H64        1.0     0.837831     0.782861     0.840288    Uiso  ? H
   C128       1.0     0.801780     0.767317     0.863814    Uiso  ? C
   C129       1.0     0.217625     0.788795     0.146132    Uiso  ? C
   C130       1.0     0.225090     0.795980     0.169181    Uiso  ? C
   C131       1.0     0.239636     0.782130     0.182364    Uiso  ? C
   H65        1.0     0.243757     0.764614     0.176572    Uiso  ? H
   C132       1.0     0.249782     0.791003     0.202261    Uiso  ? C
   H66        1.0     0.259795     0.779886     0.213184    Uiso  ? H
   C133       1.0     0.244274     0.813416     0.210502    Uiso  ? C
   H67        1.0     0.251750     0.819026     0.226158    Uiso  ? H
   C134       1.0     0.228359     0.826980     0.198669    Uiso  ? C
   C135       1.0     0.219407     0.818724     0.177349    Uiso  ? C
   H68        1.0     0.208233     0.829304     0.167623    Uiso  ? H
   C136       1.0     0.222477     0.850420     0.206577    Uiso  ? C
   C137       1.0     0.229299     0.802156     0.874741    Uiso  ? C
   C138       1.0     0.243446     0.816214     0.859455    Uiso  ? C
   C139       1.0     0.268116     0.814228     0.859976    Uiso  ? C
   H69        1.0     0.274988     0.800204     0.870025    Uiso  ? H
   C140       1.0     0.281476     0.827769     0.845428    Uiso  ? C
   H70        1.0     0.299689     0.825571     0.844431    Uiso  ? H
   C141       1.0     0.270929     0.843422     0.830597    Uiso  ? C
   H71        1.0     0.281604     0.852851     0.818694    Uiso  ? H
   C142       1.0     0.246824     0.845973     0.829946    Uiso  ? C
   C143       1.0     0.233577     0.831560     0.843661    Uiso  ? C
   H72        1.0     0.215311     0.832317     0.842786    Uiso  ? H
   C144       1.0     0.236032     0.861515     0.813523    Uiso  ? C
   C145       1.0     0.175188     0.756454     0.129431    Uiso  ? C
   C146       1.0     0.159255     0.743184     0.144550    Uiso  ? C
   C147       1.0     0.163633     0.720323     0.150640    Uiso  ? C
   H73        1.0     0.178087     0.711428     0.143526    Uiso  ? H
   C148       1.0     0.149759     0.709263     0.166209    Uiso  ? C
   H74        1.0     0.153110     0.691472     0.170710    Uiso  ? H
   C149       1.0     0.132659     0.721094     0.177975    Uiso  ? C
   H75        1.0     0.122280     0.711881     0.189812    Uiso  ? H
   C150       1.0     0.129432     0.743875     0.172819    Uiso  ? C
   C151       1.0     0.142026     0.754516     0.154898    Uiso  ? C
   H76        1.0     0.138978     0.772536     0.150722    Uiso  ? H
   C152       1.0     0.113915     0.758384     0.186944    Uiso  ? C
   C153       1.0     0.238508     0.118632     0.815046    Uiso  ? C
   C154       1.0     0.252412     0.133575     0.830375    Uiso  ? C
   C155       1.0     0.276434     0.130800     0.832861    Uiso  ? C
   H77        1.0     0.286144     0.118432     0.822842    Uiso  ? H
   C156       1.0     0.288212     0.144065     0.848382    Uiso  ? C
   H78        1.0     0.306627     0.142443     0.850129    Uiso  ? H
   C157       1.0     0.276113     0.160378     0.861299    Uiso  ? C
   H79        1.0     0.286078     0.169596     0.874063    Uiso  ? H
   C158       1.0     0.252861     0.163691     0.858954    Uiso  ? C
   C159       1.0     0.240795     0.150116     0.843543    Uiso  ? C
   H80        1.0     0.222680     0.152042     0.841340    Uiso  ? H
   C160       1.0     0.240622     0.180551     0.873645    Uiso  ? C
   C161       1.0     0.203958     0.138289     0.777452    Uiso  ? C
   C162       1.0     0.198834     0.162391     0.771796    Uiso  ? C
   C163       1.0     0.214246     0.175835     0.758484    Uiso  ? C
   H81        1.0     0.231443     0.169036     0.754123    Uiso  ? H
   C164       1.0     0.208552     0.198044     0.751955    Uiso  ? C
   H82        1.0     0.219046     0.208432     0.741000    Uiso  ? H
   C165       1.0     0.187082     0.206763     0.759093    Uiso  ? C
   H83        1.0     0.183542     0.225052     0.756482    Uiso  ? H
   C166       1.0     0.170986     0.193738     0.772170    Uiso  ? C
   C167       1.0     0.177487     0.171449     0.778670    Uiso  ? C
   H84        1.0     0.166501     0.161110     0.789530    Uiso  ? H
   C168       1.0     0.148276     0.202633     0.778522    Uiso  ? C
   C169       1.0     0.122468     0.808943     0.240268    Uiso  ? C
   C170       1.0     0.140579     0.820539     0.252760    Uiso  ? C
   C171       1.0     0.145896     0.814560     0.275068    Uiso  ? C
   H85        1.0     0.135512     0.802119     0.284436    Uiso  ? H
   C172       1.0     0.163794     0.825535     0.286608    Uiso  ? C
   H86        1.0     0.167677     0.820349     0.303992    Uiso  ? H
   C173       1.0     0.177258     0.842204     0.275783    Uiso  ? C
   H87        1.0     0.192879     0.849456     0.284582    Uiso  ? H
   C174       1.0     0.171879     0.849145     0.253398    Uiso  ? C
   C175       1.0     0.154081     0.837474     0.241577    Uiso  ? C
   H88        1.0     0.149987     0.842070     0.224201    Uiso  ? H
   C176       1.0     0.185700     0.866446     0.240855    Uiso  ? C
   C177       1.0     0.855481     0.768076     0.191454    Uiso  ? C
   C178       1.0     0.834346     0.758027     0.181559    Uiso  ? C
   C179       1.0     0.827494     0.735416     0.186720    Uiso  ? C
   H89        1.0     0.836957     0.725175     0.198598    Uiso  ? H
   C180       1.0     0.809255     0.725966     0.174745    Uiso  ? C
   H90        1.0     0.803503     0.709079     0.178236    Uiso  ? H
   C181       1.0     0.797867     0.738626     0.157259    Uiso  ? C
   H91        1.0     0.784310     0.730053     0.147335    Uiso  ? H
   C182       1.0     0.803887     0.761459     0.152101    Uiso  ? C
   C183       1.0     0.822114     0.770306     0.164986    Uiso  ? C
   H92        1.0     0.827415     0.788169     0.162195    Uiso  ? H
   C184       1.0     0.794057     0.773830     0.132117    Uiso  ? C
   C185       1.0     0.758650     0.822800     0.869651    Uiso  ? C
   C186       1.0     0.747051     0.838363     0.853479    Uiso  ? C
   C187       1.0     0.722974     0.838531     0.851030    Uiso  ? C
   H93        1.0     0.711210     0.828340     0.861625    Uiso  ? H
   C188       1.0     0.712407     0.852225     0.834175    Uiso  ? C
   H94        1.0     0.694071     0.851834     0.832806    Uiso  ? H
   C189       1.0     0.725782     0.866236     0.819656    Uiso  ? C
   H95        1.0     0.716616     0.877347     0.808376    Uiso  ? H
   C190       1.0     0.749588     0.865706     0.820684    Uiso  ? C
   C191       1.0     0.760420     0.852796     0.838324    Uiso  ? C
   H96        1.0     0.779000     0.852088     0.840600    Uiso  ? H
   C192       1.0     0.763713     0.878750     0.804380    Uiso  ? C
   O55        1.0     0.120468     0.781926     0.812783    Uiso  ? O
   O56        1.0     0.107913     0.750925     0.794618    Uiso  ? O
   O57        1.0     0.117786     0.816389     0.768605    Uiso  ? O
   O58        1.0     0.127008     0.783031     0.755140    Uiso  ? O
   O59        1.0     0.862549     0.808816     0.782793    Uiso  ? O
   O60        1.0     0.867607     0.788656     0.751188    Uiso  ? O
   O61        1.0     0.865294     0.788438     0.803994    Uiso  ? O
   O62        1.0     0.875991     0.754498     0.792023    Uiso  ? O
   O63        1.0     0.207229     0.803217     0.133468    Uiso  ? O
   O64        1.0     0.220241     0.768237     0.139152    Uiso  ? O
   O65        1.0     0.207682     0.803719     0.873283    Uiso  ? O
   O66        1.0     0.238378     0.789617     0.889766    Uiso  ? O
   O67        1.0     0.168952     0.772516     0.886347    Uiso  ? O
   O68        1.0     0.196417     0.747257     0.879471    Uiso  ? O
   O69        1.0     0.167406     0.772121     0.115956    Uiso  ? O
   O70        1.0     0.197122     0.751572     0.129864    Uiso  ? O
   O71        1.0     0.216450     0.120153     0.815717    Uiso  ? O
   O72        1.0     0.248508     0.105161     0.800704    Uiso  ? O
   O73        1.0     0.197451     0.130195     0.796756    Uiso  ? O
   O74        1.0     0.216368     0.125533     0.763893    Uiso  ? O
   O75        1.0     0.181757     0.876098     0.770250    Uiso  ? O
   O76        1.0     0.214903     0.862603     0.758959    Uiso  ? O
   O77        1.0     0.214472     0.865114     0.815621    Uiso  ? O
   O78        1.0     0.248055     0.873776     0.799767    Uiso  ? O
   O79        1.0     0.109412     0.820721     0.227907    Uiso  ? O
   O80        1.0     0.120213     0.787284     0.239953    Uiso  ? O
   O81        1.0     0.114553     0.780015     0.186298    Uiso  ? O
   O82        1.0     0.897242     0.749391     0.201682    Uiso  ? O
   O83        1.0     0.858588     0.789720     0.191126    Uiso  ? O
   O84        1.0     0.867557     0.755586     0.204716    Uiso  ? O
   O85        1.0     0.856428     0.806403     0.212855    Uiso  ? O
   O86        1.0     0.859238     0.782883     0.242550    Uiso  ? O
   O87        1.0     0.798431     0.794983     0.128637    Uiso  ? O
   O88        1.0     0.779362     0.763792     0.119435    Uiso  ? O
   O89        1.0     0.813352     0.778155     0.879133    Uiso  ? O
   O90        1.0     0.780157     0.766069     0.865399    Uiso  ? O
   O91        1.0     0.780241     0.823377     0.871991    Uiso  ? O
   O92        1.0     0.746982     0.807641     0.880240    Uiso  ? O
   O93        1.0     0.779450     0.815711     0.123992    Uiso  ? O
   O94        1.0     0.745472     0.806986     0.108458    Uiso  ? O
   O95        1.0     0.184951     0.123448     0.220937    Uiso  ? O
   O96        1.0     0.202276     0.111506     0.252494    Uiso  ? O
   O97        1.0     0.223564     0.112776     0.182167    Uiso  ? O
   O98        1.0     0.240801     0.123725     0.214072    Uiso  ? O
   O99        1.0     0.204313     0.860132     0.198758    Uiso  ? O
   O100       1.0     0.235447     0.860880     0.220892    Uiso  ? O
   O101       1.0     0.182850     0.867912     0.218989    Uiso  ? O
   O102       1.0     0.200187     0.878812     0.251340    Uiso  ? O
   O103       1.0     0.103176     0.833187     0.819857    Uiso  ? O
   O104       1.0     0.172816     0.830610     0.106405    Uiso  ? O
   O105       1.0     0.164146     0.883355     0.823163    Uiso  ? O
   O106       1.0     0.101622     0.831351     0.177123    Uiso  ? O
   O107       1.0     0.827310     0.830757     0.893228    Uiso  ? O
   O108       1.0     0.170472     0.103319     0.173764    Uiso  ? O
   Zn13       1.0     0.896518     0.806343     0.797123    Uiso  ? Zn
   Zn14       1.0     0.893597     0.765592     0.762401    Uiso  ? Zn
   Zn15       1.0     0.189530     0.798554     0.102560    Uiso  ? Zn
   Zn16       1.0     0.221357     0.760283     0.102387    Uiso  ? Zn
   Zn17       1.0     0.192808     0.890270     0.802148    Uiso  ? Zn
   Zn18       1.0     0.233575     0.890420     0.769076    Uiso  ? Zn
   Zn19       1.0     0.890778     0.805776     0.199988    Uiso  ? Zn
   Zn20       1.0     0.888343     0.766101     0.232905    Uiso  ? Zn
   Zn21       1.0     0.801110     0.806861     0.895059    Uiso  ? Zn
   Zn22       1.0     0.758945     0.775218     0.893906    Uiso  ? Zn
   Zn23       1.0     0.193962     0.895651     0.198082    Uiso  ? Zn
   Zn24       1.0     0.230448     0.893019     0.236910    Uiso  ? Zn
   H97        1.0     0.159803     0.830382     0.896567    Uiso  ? H
   H98        1.0     0.174110     0.840379     0.119554    Uiso  ? H
   H99        1.0     0.831699     0.164668     0.107533    Uiso  ? H
   H100       1.0     0.821903     0.161494     0.881852    Uiso  ? H
   H101       1.0     0.827700     0.106653     0.840029    Uiso  ? H
   H102       1.0     0.846203     0.112427     0.819438    Uiso  ? H
   H103       1.0     0.110332     0.159743     0.821912    Uiso  ? H
   H104       1.0     0.884681     0.172673     0.834987    Uiso  ? H
   H105       1.0     0.172140     0.892468     0.158564    Uiso  ? H
   H106       1.0     0.156769     0.112849     0.175814    Uiso  ? H
   H107       1.0     0.878556     0.159958     0.177838    Uiso  ? H
   H108       1.0     0.895772     0.173165     0.158021    Uiso  ? H
   H109       1.0     0.157051     0.176645     0.881236    Uiso  ? H
   H110       1.0     0.165109     0.162578     0.104930    Uiso  ? H
   H111       1.0     0.117803     0.834890     0.175494    Uiso  ? H
   H112       1.0     0.886765     0.842195     0.170857    Uiso  ? H
   H113       1.0     0.831095     0.895850     0.162762    Uiso  ? H
   H114       1.0     0.846522     0.112861     0.183608    Uiso  ? H
   H115       1.0     0.838608     0.829287     0.104575    Uiso  ? H
   H116       1.0     0.828317     0.843556     0.883036    Uiso  ? H
   H117       1.0     0.166404     0.875725     0.837975    Uiso  ? H
   H118       1.0     0.149561     0.889136     0.818810    Uiso  ? H
   H119       1.0     0.104162     0.848540     0.814240    Uiso  ? H
   H120       1.0     0.105583     0.830567     0.836157    Uiso  ? H
   C193       1.0     0.877101     0.367875     0.408940    Uiso  ? C
   C194       1.0     0.863398     0.354428     0.425417    Uiso  ? C
   C195       1.0     0.865359     0.330812     0.426139    Uiso  ? C
   H121       1.0     0.877312     0.321814     0.414876    Uiso  ? H
   C196       1.0     0.852127     0.318396     0.441789    Uiso  ? C
   H122       1.0     0.852259     0.299751     0.442918    Uiso  ? H
   C197       1.0     0.837896     0.329956     0.457277    Uiso  ? C
   H123       1.0     0.827935     0.319654     0.468616    Uiso  ? H
   C198       1.0     0.836237     0.353465     0.456708    Uiso  ? C
   C199       1.0     0.848855     0.365974     0.441106    Uiso  ? C
   H124       1.0     0.847326     0.384363     0.441193    Uiso  ? H
   C200       1.0     0.818604     0.365164     0.471155    Uiso  ? C
   C201       1.0     0.857805     0.402441     0.367532    Uiso  ? C
   C202       1.0     0.834264     0.407445     0.361628    Uiso  ? C
   C203       1.0     0.821467     0.392814     0.346763    Uiso  ? C
   H125       1.0     0.828528     0.376777     0.339681    Uiso  ? H
   C204       1.0     0.799517     0.399210     0.338471    Uiso  ? C
   H126       1.0     0.788654     0.387410     0.327637    Uiso  ? H
   C205       1.0     0.790116     0.420137     0.345316    Uiso  ? C
   H127       1.0     0.773605     0.425662     0.339152    Uiso  ? H
   C206       1.0     0.802835     0.435130     0.358866    Uiso  ? C
   C207       1.0     0.823869     0.427949     0.368019    Uiso  ? C
   H128       1.0     0.833145     0.439100     0.379622    Uiso  ? H
   C208       1.0     0.792453     0.456505     0.367233    Uiso  ? C
   C209       1.0     0.132682     0.413460     0.354666    Uiso  ? C
   C210       1.0     0.152199     0.425650     0.342834    Uiso  ? C
   C211       1.0     0.158454     0.418858     0.321181    Uiso  ? C
   H129       1.0     0.149722     0.405167     0.313382    Uiso  ? H
   C212       1.0     0.177498     0.428779     0.310608    Uiso  ? C
   H130       1.0     0.184365     0.422002     0.294557    Uiso  ? H
   C213       1.0     0.189751     0.446584     0.321938    Uiso  ? C
   H131       1.0     0.204164     0.453956     0.313641    Uiso  ? H
   C214       1.0     0.182896     0.453578     0.344002    Uiso  ? C
   C215       1.0     0.163757     0.443046     0.354009    Uiso  ? C
   H132       1.0     0.158124     0.449184     0.369934    Uiso  ? H
   C216       1.0     0.194533     0.473165     0.355861    Uiso  ? C
   C217       1.0     0.133700     0.370582     0.406809    Uiso  ? C
   C218       1.0     0.150365     0.357744     0.421006    Uiso  ? C
   C219       1.0     0.152772     0.333888     0.419505    Uiso  ? C
   H133       1.0     0.141989     0.323622     0.408214    Uiso  ? H
   C220       1.0     0.170394     0.322898     0.431723    Uiso  ? C
   H134       1.0     0.171021     0.303769     0.429548    Uiso  ? H
   C221       1.0     0.185059     0.334854     0.446256    Uiso  ? C
   H135       1.0     0.197359     0.326223     0.456582    Uiso  ? H
   C222       1.0     0.181957     0.359055     0.449356    Uiso  ? C
   C223       1.0     0.165068     0.369764     0.435928    Uiso  ? C
   H136       1.0     0.162888     0.388874     0.437073    Uiso  ? H
   C224       1.0     0.195772     0.372515     0.465668    Uiso  ? C
   C225       1.0     0.774617     0.400550     0.538054    Uiso  ? C
   C226       1.0     0.766425     0.408346     0.560967    Uiso  ? C
   C227       1.0     0.750454     0.395100     0.573882    Uiso  ? C
   H137       1.0     0.743122     0.379373     0.566092    Uiso  ? H
   C228       1.0     0.743588     0.402765     0.595393    Uiso  ? C
   H138       1.0     0.730987     0.393005     0.605278    Uiso  ? H
   C229       1.0     0.749766     0.424337     0.602883    Uiso  ? C
   H139       1.0     0.742863     0.430865     0.619348    Uiso  ? H
   C230       1.0     0.765315     0.437470     0.590527    Uiso  ? C
   C231       1.0     0.774017     0.429367     0.569633    Uiso  ? C
   H140       1.0     0.785837     0.439141     0.560331    Uiso  ? H
   C232       1.0     0.771486     0.460585     0.597800    Uiso  ? C
   C233       1.0     0.759938     0.399387     0.468269    Uiso  ? C
   C234       1.0     0.747745     0.408910     0.447881    Uiso  ? C
   C235       1.0     0.730630     0.395309     0.437350    Uiso  ? C
   H141       1.0     0.727254     0.378786     0.445011    Uiso  ? H
   C236       1.0     0.720785     0.403000     0.416859    Uiso  ? C
   H142       1.0     0.708298     0.392278     0.408317    Uiso  ? H
   C237       1.0     0.727326     0.423889     0.406917    Uiso  ? C
   H143       1.0     0.720733     0.428460     0.389996    Uiso  ? H
   C238       1.0     0.743909     0.437849     0.418050    Uiso  ? C
   C239       1.0     0.753805     0.430129     0.438551    Uiso  ? C
   H144       1.0     0.767597     0.439735     0.445905    Uiso  ? H
   C240       1.0     0.753191     0.459255     0.407416    Uiso  ? C
   C241       1.0     0.816358     0.362666     0.525488    Uiso  ? C
   C242       1.0     0.834952     0.351587     0.538954    Uiso  ? C
   C243       1.0     0.839915     0.327782     0.535976    Uiso  ? C
   H145       1.0     0.831340     0.317286     0.523025    Uiso  ? H
   C244       1.0     0.855690     0.317321     0.550142    Uiso  ? C
   H146       1.0     0.859624     0.299516     0.546743    Uiso  ? H
   C245       1.0     0.866984     0.329752     0.567250    Uiso  ? C
   H147       1.0     0.878660     0.321647     0.579019    Uiso  ? H
   C246       1.0     0.864400     0.353851     0.568622    Uiso  ? C
   C247       1.0     0.847728     0.364576     0.554776    Uiso  ? C
   H148       1.0     0.843624     0.383060     0.557850    Uiso  ? H
   C248       1.0     0.877429     0.366982     0.586185    Uiso  ? C
   C249       1.0     0.756619     0.526529     0.411050    Uiso  ? C
   C250       1.0     0.745730     0.544801     0.425439    Uiso  ? C
   C251       1.0     0.721881     0.548609     0.424603    Uiso  ? C
   H149       1.0     0.711901     0.540084     0.411198    Uiso  ? H
   C252       1.0     0.711508     0.566364     0.437376    Uiso  ? C
   H150       1.0     0.692856     0.570966     0.434444    Uiso  ? H
   C253       1.0     0.724996     0.579907     0.451832    Uiso  ? C
   H151       1.0     0.717192     0.593627     0.461580    Uiso  ? H
   C254       1.0     0.748655     0.575584     0.454229    Uiso  ? C
   C255       1.0     0.759005     0.558450     0.440113    Uiso  ? C
   H152       1.0     0.777460     0.557055     0.440490    Uiso  ? H
   C256       1.0     0.763231     0.590249     0.469117    Uiso  ? C
   C257       1.0     0.797824     0.524738     0.368271    Uiso  ? C
   C258       1.0     0.810173     0.542661     0.355408    Uiso  ? C
   C259       1.0     0.807149     0.545082     0.332305    Uiso  ? C
   H153       1.0     0.793962     0.535548     0.323681    Uiso  ? H
   C260       1.0     0.819985     0.560572     0.319287    Uiso  ? C
   H154       1.0     0.814953     0.564324     0.302282    Uiso  ? H
   C261       1.0     0.835868     0.574474     0.329891    Uiso  ? C
   H155       1.0     0.845441     0.586452     0.318946    Uiso  ? H
   C262       1.0     0.840126     0.572810     0.353620    Uiso  ? C
   C263       1.0     0.826871     0.557522     0.366151    Uiso  ? C
   H156       1.0     0.830323     0.555115     0.384125    Uiso  ? H
   C264       1.0     0.858533     0.586284     0.364243    Uiso  ? C
   C265       1.0     0.867193     0.411709     0.639602    Uiso  ? C
   C266       1.0     0.846304     0.422215     0.650337    Uiso  ? C
   C267       1.0     0.835935     0.412089     0.669807    Uiso  ? C
   H157       1.0     0.842952     0.396254     0.676632    Uiso  ? H
   C268       1.0     0.816576     0.422359     0.679616    Uiso  ? C
   H158       1.0     0.808416     0.414639     0.694053    Uiso  ? H
   C269       1.0     0.805714     0.440888     0.669325    Uiso  ? C
   H159       1.0     0.790118     0.447625     0.677147    Uiso  ? H
   C270       1.0     0.815498     0.451578     0.650284    Uiso  ? C
   C271       1.0     0.836290     0.442768     0.641364    Uiso  ? C
   H160       1.0     0.842886     0.450248     0.625193    Uiso  ? H
   C272       1.0     0.804235     0.471628     0.638884    Uiso  ? C
   C273       1.0     0.135432     0.371145     0.593847    Uiso  ? C
   C274       1.0     0.155264     0.360281     0.581975    Uiso  ? C
   C275       1.0     0.165098     0.340032     0.591262    Uiso  ? C
   H161       1.0     0.157081     0.330114     0.605052    Uiso  ? H
   C276       1.0     0.184169     0.330505     0.581534    Uiso  ? C
   H162       1.0     0.191243     0.315132     0.588031    Uiso  ? H
   C277       1.0     0.195504     0.340917     0.563271    Uiso  ? C
   H163       1.0     0.210834     0.333295     0.555661    Uiso  ? H
   C278       1.0     0.186762     0.361662     0.554712    Uiso  ? C
   C279       1.0     0.166741     0.371417     0.563915    Uiso  ? C
   H164       1.0     0.160368     0.388042     0.557816    Uiso  ? H
   C280       1.0     0.198013     0.373936     0.535024    Uiso  ? C
   C281       1.0     0.236416     0.411331     0.462690    Uiso  ? C
   C282       1.0     0.246604     0.421585     0.441993    Uiso  ? C
   C283       1.0     0.269245     0.416553     0.435817    Uiso  ? C
   H165       1.0     0.278259     0.402492     0.444184    Uiso  ? H
   C284       1.0     0.279523     0.426437     0.416429    Uiso  ? C
   H166       1.0     0.297550     0.420957     0.411467    Uiso  ? H
   C285       1.0     0.268122     0.443782     0.404670    Uiso  ? C
   H167       1.0     0.275185     0.449658     0.388763    Uiso  ? H
   C286       1.0     0.245383     0.450413     0.410213    Uiso  ? C
   C287       1.0     0.234531     0.439189     0.429213    Uiso  ? C
   H168       1.0     0.217253     0.444019     0.433825    Uiso  ? H
   C288       1.0     0.233108     0.468084     0.396510    Uiso  ? C
   O109       1.0     0.875764     0.389912     0.408315    Uiso  ? O
   O110       1.0     0.889752     0.357375     0.394345    Uiso  ? O
   O111       1.0     0.865335     0.408248     0.386886    Uiso  ? O
   O112       1.0     0.869552     0.389937     0.354325    Uiso  ? O
   O113       1.0     0.120277     0.424629     0.368108    Uiso  ? O
   O114       1.0     0.129822     0.392255     0.352529    Uiso  ? O
   O115       1.0     0.129919     0.391646     0.411270    Uiso  ? O
   O116       1.0     0.121596     0.360355     0.391708    Uiso  ? O
   O117       1.0     0.794851     0.404970     0.531733    Uiso  ? O
   O118       1.0     0.762870     0.385875     0.527206    Uiso  ? O
   O119       1.0     0.770882     0.412395     0.482013    Uiso  ? O
   O120       1.0     0.761880     0.377772     0.469878    Uiso  ? O
   O121       1.0     0.820705     0.386590     0.473926    Uiso  ? O
   O122       1.0     0.803414     0.354198     0.482708    Uiso  ? O
   O123       1.0     0.814081     0.384489     0.524969    Uiso  ? O
   O124       1.0     0.803338     0.350924     0.512470    Uiso  ? O
   O125       1.0     0.778333     0.524761     0.410033    Uiso  ? O
   O126       1.0     0.744505     0.514273     0.397725    Uiso  ? O
   O127       1.0     0.799418     0.523278     0.390224    Uiso  ? O
   O128       1.0     0.782965     0.512551     0.357758    Uiso  ? O
   O129       1.0     0.805140     0.471046     0.378112    Uiso  ? O
   O130       1.0     0.770892     0.459595     0.366561    Uiso  ? O
   O131       1.0     0.765994     0.472539     0.419060    Uiso  ? O
   O132       1.0     0.751652     0.461617     0.385544    Uiso  ? O
   O133       1.0     0.881390     0.423682     0.628894    Uiso  ? O
   O134       1.0     0.869664     0.389855     0.639412    Uiso  ? O
   O135       1.0     0.876629     0.388414     0.585494    Uiso  ? O
   O136       1.0     0.889575     0.357143     0.601504    Uiso  ? O
   O137       1.0     0.133146     0.392854     0.593017    Uiso  ? O
   O138       1.0     0.121658     0.358772     0.605621    Uiso  ? O
   O139       1.0     0.135782     0.411348     0.614110    Uiso  ? O
   O140       1.0     0.127733     0.394896     0.647309    Uiso  ? O
   O141       1.0     0.185567     0.384844     0.520559    Uiso  ? O
   O142       1.0     0.219044     0.370800     0.530476    Uiso  ? O
   O143       1.0     0.193929     0.394009     0.466612    Uiso  ? O
   O144       1.0     0.209533     0.362520     0.479299    Uiso  ? O
   O145       1.0     0.214810     0.412760     0.466435    Uiso  ? O
   O146       1.0     0.249410     0.400595     0.477081    Uiso  ? O
   O147       1.0     0.224229     0.425548     0.517049    Uiso  ? O
   O148       1.0     0.254558     0.405508     0.506615    Uiso  ? O
   O149       1.0     0.818168     0.513765     0.626843    Uiso  ? O
   O150       1.0     0.785954     0.526941     0.643533    Uiso  ? O
   O151       1.0     0.783543     0.530661     0.587388    Uiso  ? O
   O152       1.0     0.750326     0.517872     0.601149    Uiso  ? O
   O153       1.0     0.784983     0.472632     0.585991    Uiso  ? O
   O154       1.0     0.764606     0.467931     0.617215    Uiso  ? O
   O155       1.0     0.815691     0.485688     0.626708    Uiso  ? O
   O156       1.0     0.782679     0.472673     0.639016    Uiso  ? O
   O157       1.0     0.105430     0.441172     0.416924    Uiso  ? O
   O158       1.0     0.819324     0.437597     0.492012    Uiso  ? O
   O159       1.0     0.817221     0.484811     0.432590    Uiso  ? O
   O160       1.0     0.896829     0.438587     0.576890    Uiso  ? O
   O161       1.0     0.174177     0.434857     0.505838    Uiso  ? O
   O162       1.0     0.828575     0.504786     0.569997    Uiso  ? O
   Zn25       1.0     0.104564     0.411673     0.396452    Uiso  ? Zn
   Zn26       1.0     0.102417     0.371685     0.361596    Uiso  ? Zn
   Zn27       1.0     0.802026     0.405911     0.497172    Uiso  ? Zn
   Zn28       1.0     0.771127     0.363743     0.500945    Uiso  ? Zn
   Zn29       1.0     0.793292     0.491802     0.406541    Uiso  ? Zn
   Zn30       1.0     0.755553     0.493353     0.369472    Uiso  ? Zn
   Zn31       1.0     0.102089     0.411734     0.600898    Uiso  ? Zn
   Zn32       1.0     0.102975     0.371328     0.634878    Uiso  ? Zn
   Zn33       1.0     0.198269     0.409343     0.499387    Uiso  ? Zn
   Zn34       1.0     0.237061     0.373577     0.500082    Uiso  ? Zn
   Zn35       1.0     0.803143     0.502569     0.595405    Uiso  ? Zn
   Zn36       1.0     0.762522     0.502053     0.630156    Uiso  ? Zn
   C289       1.0     0.123474     0.632880     0.580913    Uiso  ? C
   C290       1.0     0.134585     0.647183     0.563048    Uiso  ? C
   C291       1.0     0.131069     0.670785     0.561017    Uiso  ? C
   H169       1.0     0.120657     0.680271     0.573711    Uiso  ? H
   C292       1.0     0.142772     0.683637     0.545311    Uiso  ? C
   H170       1.0     0.139704     0.701587     0.545215    Uiso  ? H
   C293       1.0     0.159135     0.673594     0.530627    Uiso  ? C
   H171       1.0     0.169031     0.684081     0.519144    Uiso  ? H
   C294       1.0     0.161963     0.649348     0.531217    Uiso  ? C
   C295       1.0     0.149713     0.636651     0.547090    Uiso  ? C
   H172       1.0     0.152673     0.617870     0.547332    Uiso  ? H
   C296       1.0     0.179478     0.637483     0.516324    Uiso  ? C
   C297       1.0     0.145906     0.595725     0.633172    Uiso  ? C
   C298       1.0     0.169136     0.588521     0.640392    Uiso  ? C
   C299       1.0     0.183930     0.603495     0.651963    Uiso  ? C
   H173       1.0     0.178457     0.620353     0.655618    Uiso  ? H
   C300       1.0     0.206644     0.597702     0.656858    Uiso  ? C
   H174       1.0     0.217825     0.610124     0.665397    Uiso  ? H
   C301       1.0     0.214581     0.575802     0.651646    Uiso  ? C
   H175       1.0     0.231576     0.570368     0.655930    Uiso  ? H
   C302       1.0     0.200215     0.559785     0.640851    Uiso  ? C
   C303       1.0     0.177305     0.565903     0.636408    Uiso  ? C
   H176       1.0     0.166210     0.553212     0.628749    Uiso  ? H
   C304       1.0     0.210207     0.537379     0.631832    Uiso  ? C
   C305       1.0     0.868391     0.587983     0.637274    Uiso  ? C
   C306       1.0     0.849655     0.575939     0.649855    Uiso  ? C
   C307       1.0     0.843540     0.582584     0.672091    Uiso  ? C
   H177       1.0     0.852935     0.596000     0.680094    Uiso  ? H
   C308       1.0     0.825796     0.571518     0.684483    Uiso  ? C
   H178       1.0     0.820848     0.576725     0.701356    Uiso  ? H
   C309       1.0     0.813486     0.553415     0.673458    Uiso  ? C
   H179       1.0     0.799025     0.545487     0.682994    Uiso  ? H
   C310       1.0     0.819890     0.546585     0.651284    Uiso  ? C
   C311       1.0     0.838438     0.557177     0.640079    Uiso  ? C
   H180       1.0     0.843885     0.552221     0.622865    Uiso  ? H
   C312       1.0     0.807646     0.527874     0.639601    Uiso  ? C
   C313       1.0     0.865852     0.625045     0.596671    Uiso  ? C
   C314       1.0     0.844741     0.634896     0.587178    Uiso  ? C
   C315       1.0     0.835880     0.654984     0.597071    Uiso  ? C
   H181       1.0     0.843116     0.662025     0.612220    Uiso  ? H
   C316       1.0     0.817543     0.666414     0.587789    Uiso  ? C
   H182       1.0     0.810990     0.682635     0.595093    Uiso  ? H
   C317       1.0     0.807233     0.657856     0.567895    Uiso  ? C
   H183       1.0     0.792513     0.667416     0.561856    Uiso  ? H
   C318       1.0     0.814488     0.637011     0.558183    Uiso  ? C
   C319       1.0     0.833183     0.625428     0.568394    Uiso  ? C
   H184       1.0     0.839380     0.609881     0.560334    Uiso  ? H
   C320       1.0     0.803570     0.628713     0.537585    Uiso  ? C
   C321       1.0     0.231227     0.602713     0.453086    Uiso  ? C
   C322       1.0     0.240935     0.595458     0.431176    Uiso  ? C
   C323       1.0     0.256583     0.608608     0.419122    Uiso  ? C
   H185       1.0     0.261017     0.625728     0.424322    Uiso  ? H
   C324       1.0     0.265695     0.599882     0.398922    Uiso  ? C
   H186       1.0     0.279238     0.609805     0.390475    Uiso  ? H
   C325       1.0     0.258626     0.579039     0.389795    Uiso  ? C
   H187       1.0     0.266587     0.572764     0.374103    Uiso  ? H
   C326       1.0     0.243328     0.565378     0.402050    Uiso  ? C
   C327       1.0     0.235084     0.573438     0.423150    Uiso  ? C
   H188       1.0     0.223771     0.561998     0.432970    Uiso  ? H
   C328       1.0     0.235817     0.543336     0.392401    Uiso  ? C
   C329       1.0     0.235165     0.594001     0.525970    Uiso  ? C
   C330       1.0     0.248831     0.583388     0.544655    Uiso  ? C
   C331       1.0     0.267214     0.595104     0.554690    Uiso  ? C
   H189       1.0     0.273191     0.610764     0.547050    Uiso  ? H
   C332       1.0     0.277844     0.586291     0.574936    Uiso  ? C
   H190       1.0     0.291514     0.594763     0.582493    Uiso  ? H
   C333       1.0     0.270498     0.565928     0.584694    Uiso  ? C
   H191       1.0     0.280143     0.558562     0.598018    Uiso  ? H
   C334       1.0     0.251758     0.554007     0.574557    Uiso  ? C
   C335       1.0     0.241120     0.563129     0.554933    Uiso  ? C
   H192       1.0     0.226166     0.554810     0.548253    Uiso  ? H
   C336       1.0     0.241769     0.533979     0.587127    Uiso  ? C
   C337       1.0     0.188437     0.635148     0.462115    Uiso  ? C
   C338       1.0     0.173893     0.647434     0.445066    Uiso  ? C
   C339       1.0     0.179254     0.670195     0.438292    Uiso  ? C
   H193       1.0     0.193278     0.678727     0.445469    Uiso  ? H
   C340       1.0     0.165534     0.681792     0.422303    Uiso  ? C
   H194       1.0     0.171184     0.698669     0.417674    Uiso  ? H
   C341       1.0     0.147196     0.670109     0.411781    Uiso  ? C
   H195       1.0     0.138385     0.678644     0.398046    Uiso  ? H
   C342       1.0     0.142151     0.647552     0.417727    Uiso  ? C
   C343       1.0     0.155104     0.635617     0.434197    Uiso  ? C
   H196       1.0     0.151786     0.617464     0.437242    Uiso  ? H
   C344       1.0     0.123971     0.634912     0.405680    Uiso  ? C
   C345       1.0     0.251866     0.480769     0.579108    Uiso  ? C
   C346       1.0     0.263520     0.465888     0.561738    Uiso  ? C
   C347       1.0     0.287642     0.461535     0.562480    Uiso  ? C
   H197       1.0     0.297402     0.470142     0.576017    Uiso  ? H
   C348       1.0     0.297695     0.445559     0.547809    Uiso  ? C
   H198       1.0     0.315946     0.443434     0.549498    Uiso  ? H
   C349       1.0     0.284565     0.435209     0.530999    Uiso  ? C
   H199       1.0     0.293461     0.422459     0.520515    Uiso  ? H
   C350       1.0     0.260642     0.438319     0.530333    Uiso  ? C
   C351       1.0     0.250591     0.455030     0.544552    Uiso  ? C
   H200       1.0     0.231882     0.458854     0.544024    Uiso  ? H
   C352       1.0     0.245832     0.423138     0.516087    Uiso  ? C
   C353       1.0     0.205106     0.464229     0.629034    Uiso  ? C
   C354       1.0     0.194486     0.444369     0.641086    Uiso  ? C
   C355       1.0     0.201520     0.436777     0.663372    Uiso  ? C
   H201       1.0     0.215828     0.444396     0.671230    Uiso  ? H
   C356       1.0     0.189587     0.419940     0.675838    Uiso  ? C
   H202       1.0     0.194655     0.414845     0.693217    Uiso  ? H
   C357       1.0     0.170825     0.409368     0.665719    Uiso  ? C
   H203       1.0     0.163431     0.395911     0.676035    Uiso  ? H
   C358       1.0     0.163106     0.416263     0.643871    Uiso  ? C
   C359       1.0     0.175394     0.433219     0.631472    Uiso  ? C
   H204       1.0     0.169816     0.438093     0.614314    Uiso  ? H
   C360       1.0     0.141249     0.407171     0.634723    Uiso  ? C
   C361       1.0     0.119363     0.584466     0.358609    Uiso  ? C
   C362       1.0     0.135328     0.570482     0.345088    Uiso  ? C
   C363       1.0     0.134405     0.569248     0.321318    Uiso  ? C
   H205       1.0     0.122396     0.580477     0.311531    Uiso  ? H
   C364       1.0     0.149568     0.555690     0.308961    Uiso  ? C
   H206       1.0     0.148671     0.555534     0.290496    Uiso  ? H
   C365       1.0     0.165195     0.541412     0.320390    Uiso  ? C
   H207       1.0     0.176755     0.530906     0.310886    Uiso  ? H
   C366       1.0     0.164965     0.540520     0.344606    Uiso  ? C
   C367       1.0     0.150896     0.555633     0.356567    Uiso  ? C
   H208       1.0     0.151352     0.555072     0.375717    Uiso  ? H
   C368       1.0     0.181057     0.525124     0.356823    Uiso  ? C
   C369       1.0     0.863035     0.638454     0.403893    Uiso  ? C
   C370       1.0     0.844830     0.651567     0.415446    Uiso  ? C
   C371       1.0     0.833696     0.669749     0.404941    Uiso  ? C
   H209       1.0     0.839182     0.676045     0.388292    Uiso  ? H
   C372       1.0     0.814128     0.680593     0.415315    Uiso  ? C
   H210       1.0     0.805347     0.694684     0.407044    Uiso  ? H
   C373       1.0     0.805363     0.671204     0.436059    Uiso  ? C
   H211       1.0     0.790593     0.679794     0.444220    Uiso  ? H
   C374       1.0     0.816691     0.653015     0.446757    Uiso  ? C
   C375       1.0     0.836549     0.643756     0.436656    Uiso  ? C
   H212       1.0     0.845563     0.628912     0.445004    Uiso  ? H
   C376       1.0     0.806394     0.640968     0.466005    Uiso  ? C
   C377       1.0     0.762213     0.591133     0.524083    Uiso  ? C
   C378       1.0     0.749712     0.575937     0.541003    Uiso  ? C
   C379       1.0     0.725611     0.576600     0.541996    Uiso  ? C
   H213       1.0     0.715672     0.587398     0.530678    Uiso  ? H
   C380       1.0     0.714040     0.561979     0.557397    Uiso  ? C
   H214       1.0     0.695363     0.561500     0.557968    Uiso  ? H
   C381       1.0     0.725480     0.548340     0.573126    Uiso  ? C
   H215       1.0     0.715224     0.538779     0.585135    Uiso  ? H
   C382       1.0     0.749524     0.546877     0.572386    Uiso  ? C
   C383       1.0     0.761666     0.561154     0.556390    Uiso  ? C
   H216       1.0     0.780037     0.560475     0.554923    Uiso  ? H
   C384       1.0     0.761925     0.531458     0.588115    Uiso  ? C
   O163       1.0     0.123969     0.611180     0.579468    Uiso  ? O
   O164       1.0     0.113789     0.642059     0.598560    Uiso  ? O
   O165       1.0     0.131144     0.580688     0.627300    Uiso  ? O
   O166       1.0     0.140584     0.616760     0.632400    Uiso  ? O
   O167       1.0     0.871834     0.583119     0.616287    Uiso  ? O
   O168       1.0     0.881351     0.602746     0.646890    Uiso  ? O
   O169       1.0     0.869854     0.603154     0.595748    Uiso  ? O
   O170       1.0     0.881364     0.638580     0.604633    Uiso  ? O
   O171       1.0     0.211488     0.594728     0.459134    Uiso  ? O
   O172       1.0     0.241205     0.617538     0.465591    Uiso  ? O
   O173       1.0     0.224907     0.581688     0.511254    Uiso  ? O
   O174       1.0     0.235457     0.615113     0.523428    Uiso  ? O
   O175       1.0     0.177531     0.616036     0.513297    Uiso  ? O
   O176       1.0     0.196332     0.648438     0.506543    Uiso  ? O
   O177       1.0     0.189355     0.613122     0.462313    Uiso  ? O
   O178       1.0     0.199312     0.646892     0.476912    Uiso  ? O
   O179       1.0     0.232559     0.489445     0.574301    Uiso  ? O
   O180       1.0     0.259448     0.482546     0.599497    Uiso  ? O
   O181       1.0     0.201379     0.467121     0.608263    Uiso  ? O
   O182       1.0     0.217457     0.478312     0.640024    Uiso  ? O
   O183       1.0     0.196462     0.523968     0.621968    Uiso  ? O
   O184       1.0     0.231894     0.533388     0.632071    Uiso  ? O
   O185       1.0     0.227855     0.520358     0.576585    Uiso  ? O
   O186       1.0     0.247002     0.529679     0.608344    Uiso  ? O
   O187       1.0     0.121629     0.586190     0.380099    Uiso  ? O
   O188       1.0     0.105063     0.596774     0.348042    Uiso  ? O
   O189       1.0     0.108169     0.624723     0.417235    Uiso  ? O
   O190       1.0     0.122996     0.635661     0.383798    Uiso  ? O
   O191       1.0     0.877055     0.626002     0.416236    Uiso  ? O
   O192       1.0     0.863544     0.637758     0.382006    Uiso  ? O
   O193       1.0     0.860430     0.587662     0.386011    Uiso  ? O
   O194       1.0     0.873193     0.596659     0.351599    Uiso  ? O
   O195       1.0     0.818442     0.629386     0.480234    Uiso  ? O
   O196       1.0     0.785058     0.642647     0.468554    Uiso  ? O
   O197       1.0     0.805431     0.607789     0.532413    Uiso  ? O
   O198       1.0     0.792149     0.642042     0.524631    Uiso  ? O
   O199       1.0     0.783952     0.590697     0.523879    Uiso  ? O
   O200       1.0     0.751298     0.604031     0.510341    Uiso  ? O
   O201       1.0     0.783959     0.584752     0.471810    Uiso  ? O
   O202       1.0     0.754615     0.606110     0.481009    Uiso  ? O
   O203       1.0     0.193555     0.475023     0.377474    Uiso  ? O
   O204       1.0     0.205201     0.488494     0.344335    Uiso  ? O
   O205       1.0     0.212139     0.470425     0.398864    Uiso  ? O
   O206       1.0     0.244265     0.482267     0.384321    Uiso  ? O
   O207       1.0     0.223697     0.530079     0.404759    Uiso  ? O
   O208       1.0     0.238309     0.538889     0.371414    Uiso  ? O
   O209       1.0     0.177356     0.519948     0.377952    Uiso  ? O
   O210       1.0     0.200372     0.519470     0.347243    Uiso  ? O
   O211       1.0     0.112287     0.559322     0.579866    Uiso  ? O
   O212       1.0     0.177315     0.564693     0.495908    Uiso  ? O
   O213       1.0     0.175342     0.501818     0.576216    Uiso  ? O
   O214       1.0     0.894422     0.568902     0.424909    Uiso  ? O
   O215       1.0     0.836299     0.582028     0.491147    Uiso  ? O
   O216       1.0     0.182852     0.504154     0.430382    Uiso  ? O
   Zn37       1.0     0.107114     0.587151     0.601264    Uiso  ? Zn
   Zn38       1.0     0.106587     0.627342     0.632174    Uiso  ? Zn
   Zn39       1.0     0.197115     0.594248     0.492187    Uiso  ? Zn
   Zn40       1.0     0.228818     0.635116     0.495177    Uiso  ? Zn
   Zn41       1.0     0.204722     0.499495     0.596143    Uiso  ? Zn
   Zn42       1.0     0.244723     0.499545     0.628554    Uiso  ? Zn
   Zn43       1.0     0.890956     0.595408     0.402100    Uiso  ? Zn
   Zn44       1.0     0.890632     0.628602     0.362265    Uiso  ? Zn
   Zn45       1.0     0.806304     0.599829     0.495753    Uiso  ? Zn
   Zn46       1.0     0.768497     0.634647     0.498685    Uiso  ? Zn
   Zn47       1.0     0.200164     0.503986     0.399115    Uiso  ? Zn
   Zn48       1.0     0.233408     0.506345     0.358563    Uiso  ? Zn
   H217       1.0     0.175619     0.558308     0.511156    Uiso  ? H
   H218       1.0     0.170748     0.555964     0.482835    Uiso  ? H
   H219       1.0     0.816825     0.444297     0.477146    Uiso  ? H
   H220       1.0     0.831762     0.443257     0.501521    Uiso  ? H
   H221       1.0     0.840740     0.492720     0.569062    Uiso  ? H
   H222       1.0     0.829452     0.518725     0.560813    Uiso  ? H
   H223       1.0     0.882486     0.446445     0.575215    Uiso  ? H
   H224       1.0     0.112863     0.442924     0.567723    Uiso  ? H
   H225       1.0     0.172407     0.491949     0.434297    Uiso  ? H
   H226       1.0     0.185786     0.516649     0.440770    Uiso  ? H
   H227       1.0     0.888976     0.451039     0.417600    Uiso  ? H
   H228       1.0     0.119089     0.444743     0.425583    Uiso  ? H
   H229       1.0     0.178550     0.446191     0.516656    Uiso  ? H
   H230       1.0     0.159734     0.433644     0.498483    Uiso  ? H
   H231       1.0     0.112314     0.564376     0.430083    Uiso  ? H
   H232       1.0     0.881112     0.560922     0.431234    Uiso  ? H
   H233       1.0     0.828233     0.496319     0.438486    Uiso  ? H
   H234       1.0     0.815543     0.470039     0.440399    Uiso  ? H
   H235       1.0     0.849900     0.585207     0.499879    Uiso  ? H
   H236       1.0     0.835315     0.569904     0.480421    Uiso  ? H
   H237       1.0     0.162401     0.511550     0.579698    Uiso  ? H
   H238       1.0     0.174827     0.489774     0.564620    Uiso  ? H
   H239       1.0     0.105959     0.544495     0.585058    Uiso  ? H
   H240       1.0     0.116119     0.560123     0.563649    Uiso  ? H
   C385       1.0     0.628956     0.872752     0.406617    Uiso  ? C
   C386       1.0     0.642441     0.859424     0.422867    Uiso  ? C
   C387       1.0     0.666058     0.863042     0.423269    Uiso  ? C
   H241       1.0     0.673989     0.875957     0.412378    Uiso  ? H
   C388       1.0     0.679941     0.850964     0.438419    Uiso  ? C
   H242       1.0     0.698212     0.855155     0.438898    Uiso  ? H
   C389       1.0     0.670210     0.835033     0.453467    Uiso  ? C
   H243       1.0     0.682049     0.826400     0.465378    Uiso  ? H
   C390       1.0     0.646807     0.831476     0.453858    Uiso  ? C
   C391       1.0     0.632575     0.843441     0.438189    Uiso  ? C
   H244       1.0     0.614317     0.840284     0.438189    Uiso  ? H
   C392       1.0     0.637037     0.816182     0.471623    Uiso  ? C
   C393       1.0     0.593951     0.859991     0.366393    Uiso  ? C
   C394       1.0     0.587377     0.836793     0.358264    Uiso  ? C
   C395       1.0     0.601259     0.824375     0.343256    Uiso  ? C
   H245       1.0     0.617570     0.830980     0.337493    Uiso  ? H
   C396       1.0     0.594821     0.803117     0.334978    Uiso  ? C
   H246       1.0     0.604915     0.793053     0.322327    Uiso  ? H
   C397       1.0     0.573815     0.793374     0.342290    Uiso  ? C
   H247       1.0     0.568551     0.777299     0.335735    Uiso  ? H
   C398       1.0     0.559362     0.805636     0.356933    Uiso  ? C
   C399       1.0     0.566515     0.827439     0.365125    Uiso  ? C
   H248       1.0     0.555437     0.837095     0.376064    Uiso  ? H
   C400       1.0     0.538089     0.794688     0.365840    Uiso  ? C
   C401       1.0     0.578109     0.129584     0.357235    Uiso  ? C
   C402       1.0     0.564223     0.146533     0.344558    Uiso  ? C
   C403       1.0     0.571276     0.152638     0.322353    Uiso  ? C
   H249       1.0     0.585524     0.144394     0.313948    Uiso  ? H
   C404       1.0     0.559127     0.170344     0.310515    Uiso  ? C
   H250       1.0     0.564434     0.174977     0.292956    Uiso  ? H
   C405       1.0     0.541316     0.181968     0.321493    Uiso  ? C
   H251       1.0     0.534246     0.196065     0.312531    Uiso  ? H
   C406       1.0     0.535515     0.177113     0.344227    Uiso  ? C
   C407       1.0     0.546540     0.158729     0.355548    Uiso  ? C
   H252       1.0     0.542572     0.154609     0.372696    Uiso  ? H
   C408       1.0     0.520276     0.192370     0.358254    Uiso  ? C
   C409       1.0     0.632020     0.133525     0.405977    Uiso  ? C
   C410       1.0     0.645212     0.150254     0.420709    Uiso  ? C
   C411       1.0     0.669038     0.154520     0.417532    Uiso  ? C
   H253       1.0     0.678342     0.146155     0.403838    Uiso  ? H
   C412       1.0     0.681029     0.171029     0.430407    Uiso  ? C
   H254       1.0     0.698499     0.174536     0.426262    Uiso  ? H
   C413       1.0     0.669272     0.183506     0.447177    Uiso  ? C
   H255       1.0     0.678627     0.197283     0.456378    Uiso  ? H
   C414       1.0     0.645524     0.180020     0.450921    Uiso  ? C
   C415       1.0     0.634290     0.163067     0.437810    Uiso  ? C
   H256       1.0     0.615708     0.159068     0.440109    Uiso  ? H
   C416       1.0     0.633051     0.193642     0.468993    Uiso  ? C
   C417       1.0     0.607400     0.767079     0.539165    Uiso  ? C
   C418       1.0     0.597478     0.758075     0.560938    Uiso  ? C
   C419       1.0     0.611649     0.745231     0.576622    Uiso  ? C
   H257       1.0     0.628953     0.739768     0.571503    Uiso  ? H
   C420       1.0     0.603581     0.740192     0.598874    Uiso  ? C
   H258       1.0     0.614398     0.730497     0.609725    Uiso  ? H
   C421       1.0     0.581935     0.747905     0.606007    Uiso  ? C
   H259       1.0     0.575994     0.744296     0.624174    Uiso  ? H
   C422       1.0     0.567541     0.759632     0.591078    Uiso  ? C
   C423       1.0     0.575222     0.765008     0.568271    Uiso  ? C
   H260       1.0     0.563718     0.774365     0.556541    Uiso  ? H
   C424       1.0     0.544320     0.767134     0.598445    Uiso  ? C
   C425       1.0     0.600433     0.770460     0.468619    Uiso  ? C
   C426       1.0     0.590161     0.757746     0.449233    Uiso  ? C
   C427       1.0     0.601072     0.738854     0.439833    Uiso  ? C
   H261       1.0     0.618637     0.733506     0.445817    Uiso  ? H
   C428       1.0     0.591396     0.727448     0.421248    Uiso  ? C
   H262       1.0     0.601297     0.713502     0.413016    Uiso  ? H
   C429       1.0     0.570553     0.734493     0.411331    Uiso  ? C
   H263       1.0     0.564794     0.725237     0.396090    Uiso  ? H
   C430       1.0     0.558436     0.752472     0.421032    Uiso  ? C
   C431       1.0     0.567733     0.763855     0.440586    Uiso  ? C
   H264       1.0     0.558275     0.778174     0.447697    Uiso  ? H
   C432       1.0     0.536178     0.759722     0.410630    Uiso  ? C
   C433       1.0     0.643635     0.822504     0.525348    Uiso  ? C
   C434       1.0     0.655620     0.839727     0.540131    Uiso  ? C
   C435       1.0     0.679641     0.844551     0.538208    Uiso  ? C
   H265       1.0     0.690279     0.834703     0.527129    Uiso  ? H
   C436       1.0     0.689802     0.858411     0.554827    Uiso  ? C
   H266       1.0     0.707832     0.860292     0.554801    Uiso  ? H
   C437       1.0     0.676513     0.868878     0.571544    Uiso  ? C
   H267       1.0     0.684832     0.879033     0.584852    Uiso  ? H
   C438       1.0     0.652776     0.865941     0.572213    Uiso  ? C
   C439       1.0     0.642374     0.850617     0.556678    Uiso  ? C
   H268       1.0     0.624058     0.846603     0.558428    Uiso  ? H
   C440       1.0     0.638541     0.877259     0.589397    Uiso  ? C
   C441       1.0     0.471954     0.758746     0.413924    Uiso  ? C
   C442       1.0     0.455391     0.746826     0.429747    Uiso  ? C
   C443       1.0     0.455544     0.722058     0.432059    Uiso  ? C
   H269       1.0     0.467788     0.711567     0.421665    Uiso  ? H
   C444       1.0     0.440445     0.710936     0.446730    Uiso  ? C
   H270       1.0     0.440376     0.691894     0.447869    Uiso  ? H
   C445       1.0     0.425896     0.723698     0.460784    Uiso  ? C
   H271       1.0     0.414228     0.714451     0.472486    Uiso  ? H
   C446       1.0     0.425670     0.747723     0.459422    Uiso  ? C
   C447       1.0     0.440980     0.759022     0.444079    Uiso  ? C
   H272       1.0     0.441392     0.777613     0.444033    Uiso  ? H
   C448       1.0     0.410495     0.760642     0.475187    Uiso  ? C
   C449       1.0     0.465702     0.798233     0.372011    Uiso  ? C
   C450       1.0     0.445279     0.810050     0.360798    Uiso  ? C
   C451       1.0     0.439867     0.803822     0.338329    Uiso  ? C
   H273       1.0     0.448844     0.789931     0.329797    Uiso  ? H
   C452       1.0     0.423093     0.815691     0.326400    Uiso  ? C
   H274       1.0     0.417593     0.810433     0.309326    Uiso  ? H
   C453       1.0     0.410147     0.833147     0.337646    Uiso  ? C
   H275       1.0     0.397038     0.841502     0.327474    Uiso  ? H
   C454       1.0     0.415858     0.839433     0.360400    Uiso  ? C
   C455       1.0     0.433291     0.827910     0.371816    Uiso  ? C
   H276       1.0     0.439146     0.833034     0.389169    Uiso  ? H
   C456       1.0     0.403170     0.858789     0.371282    Uiso  ? C
   C457       1.0     0.590710     0.866169     0.640839    Uiso  ? C
   C458       1.0     0.579677     0.846205     0.650586    Uiso  ? C
   C459       1.0     0.588459     0.835891     0.670446    Uiso  ? C
   H277       1.0     0.603660     0.842611     0.679116    Uiso  ? H
   C460       1.0     0.578145     0.815679     0.679108    Uiso  ? C
   H278       1.0     0.584119     0.808295     0.694705    Uiso  ? H
   C461       1.0     0.559227     0.805372     0.668620    Uiso  ? C
   H279       1.0     0.551610     0.789648     0.674857    Uiso  ? H
   C462       1.0     0.551045     0.815504     0.648946    Uiso  ? C
   C463       1.0     0.560256     0.836422     0.640680    Uiso  ? C
   H280       1.0     0.552792     0.843870     0.625800    Uiso  ? H
   C464       1.0     0.532366     0.803930     0.636446    Uiso  ? C
   C465       1.0     0.634383     0.133906     0.596788    Uiso  ? C
   C466       1.0     0.647744     0.152473     0.585677    Uiso  ? C
   C467       1.0     0.668378     0.159083     0.595058    Uiso  ? C
   H281       1.0     0.674770     0.151932     0.610842    Uiso  ? H
   C468       1.0     0.680272     0.177442     0.584895    Uiso  ? C
   H282       1.0     0.695927     0.182265     0.591766    Uiso  ? H
   C469       1.0     0.670831     0.189949     0.566318    Uiso  ? C
   H283       1.0     0.681526     0.203109     0.558438    Uiso  ? H
   C470       1.0     0.649648     0.183115     0.557642    Uiso  ? C
   C471       1.0     0.638176     0.164546     0.566908    Uiso  ? C
   H284       1.0     0.621891     0.158843     0.559542    Uiso  ? H
   C472       1.0     0.639240     0.195172     0.538850    Uiso  ? C
   C473       1.0     0.594858     0.236486     0.472665    Uiso  ? C
   C474       1.0     0.580639     0.249088     0.456287    Uiso  ? C
   C475       1.0     0.583005     0.272637     0.453793    Uiso  ? C
   H285       1.0     0.595838     0.281931     0.462930    Uiso  ? H
   C476       1.0     0.570112     0.284808     0.437634    Uiso  ? C
   H286       1.0     0.572837     0.303273     0.436004    Uiso  ? H
   C477       1.0     0.553945     0.273322     0.424092    Uiso  ? C
   H287       1.0     0.544282     0.283595     0.412671    Uiso  ? H
   C478       1.0     0.550484     0.249626     0.426400    Uiso  ? C
   C479       1.0     0.564557     0.237525     0.442616    Uiso  ? C
   H288       1.0     0.562276     0.219327     0.445199    Uiso  ? H
   C480       1.0     0.533005     0.238015     0.411604    Uiso  ? C
   O217       1.0     0.607122     0.872433     0.407427    Uiso  ? O
   O218       1.0     0.638878     0.887635     0.393468    Uiso  ? O
   O219       1.0     0.586375     0.867830     0.385312    Uiso  ? O
   O220       1.0     0.607775     0.872028     0.354323    Uiso  ? O
   O221       1.0     0.568582     0.116159     0.371546    Uiso  ? O
   O222       1.0     0.599564     0.129725     0.354763    Uiso  ? O
   O223       1.0     0.610817     0.131073     0.408065    Uiso  ? O
   O224       1.0     0.642683     0.119326     0.393155    Uiso  ? O
   O225       1.0     0.593364     0.774089     0.523797    Uiso  ? O
   O226       1.0     0.628807     0.770907     0.537347    Uiso  ? O
   O227       1.0     0.594745     0.791166     0.472030    Uiso  ? O
   O228       1.0     0.616787     0.761212     0.480116    Uiso  ? O
   O229       1.0     0.615427     0.814324     0.474485    Uiso  ? O
   O230       1.0     0.650257     0.803798     0.484259    Uiso  ? O
   O231       1.0     0.621850     0.822560     0.524898    Uiso  ? O
   O232       1.0     0.655077     0.808290     0.513596    Uiso  ? O
   O233       1.0     0.472902     0.780680     0.413795    Uiso  ? O
   O234       1.0     0.483963     0.746267     0.400264    Uiso  ? O
   O235       1.0     0.469061     0.800491     0.393812    Uiso  ? O
   O236       1.0     0.479391     0.785764     0.360592    Uiso  ? O
   O237       1.0     0.523130     0.807952     0.375154    Uiso  ? O
   O238       1.0     0.535742     0.773049     0.368222    Uiso  ? O
   O239       1.0     0.522206     0.773185     0.421689    Uiso  ? O
   O240       1.0     0.532686     0.756087     0.389586    Uiso  ? O
   O241       1.0     0.579445     0.880191     0.628816    Uiso  ? O
   O242       1.0     0.612277     0.869215     0.643423    Uiso  ? O
   O243       1.0     0.617657     0.879824     0.584517    Uiso  ? O
   O244       1.0     0.646969     0.887211     0.606889    Uiso  ? O
   O245       1.0     0.612248     0.132201     0.593085    Uiso  ? O
   O246       1.0     0.644589     0.119183     0.609828    Uiso  ? O
   O247       1.0     0.588277     0.136291     0.610669    Uiso  ? O
   O248       1.0     0.605898     0.128626     0.642802    Uiso  ? O
   O249       1.0     0.629579     0.183225     0.523380    Uiso  ? O
   O250       1.0     0.640885     0.216872     0.537053    Uiso  ? O
   O251       1.0     0.611291     0.193171     0.470349    Uiso  ? O
   O252       1.0     0.644891     0.206552     0.481980    Uiso  ? O
   O253       1.0     0.593510     0.214635     0.474825    Uiso  ? O
   O254       1.0     0.606984     0.247543     0.487604    Uiso  ? O
   O255       1.0     0.584007     0.214913     0.525205    Uiso  ? O
   O256       1.0     0.602424     0.247077     0.516785    Uiso  ? O
   O257       1.0     0.489944     0.816581     0.621628    Uiso  ? O
   O258       1.0     0.480317     0.786215     0.641949    Uiso  ? O
   O259       1.0     0.473983     0.783233     0.585852    Uiso  ? O
   O260       1.0     0.485833     0.749909     0.598628    Uiso  ? O
   O261       1.0     0.532034     0.777978     0.585073    Uiso  ? O
   O262       1.0     0.537445     0.762732     0.618785    Uiso  ? O
   O263       1.0     0.518234     0.815838     0.623810    Uiso  ? O
   O264       1.0     0.530955     0.782333     0.637607    Uiso  ? O
   O265       1.0     0.562046     0.108080     0.423051    Uiso  ? O
   O266       1.0     0.568814     0.823017     0.509200    Uiso  ? O
   O267       1.0     0.510723     0.827891     0.423332    Uiso  ? O
   O268       1.0     0.565372     0.893863     0.576154    Uiso  ? O
   O269       1.0     0.579600     0.163315     0.507788    Uiso  ? O
   O270       1.0     0.504137     0.823516     0.565560    Uiso  ? O
   Zn49       1.0     0.587032     0.104969     0.398209    Uiso  ? Zn
   Zn50       1.0     0.625805     0.105889     0.363018    Uiso  ? Zn
   Zn51       1.0     0.598264     0.803560     0.505870    Uiso  ? Zn
   Zn52       1.0     0.641736     0.775027     0.504654    Uiso  ? Zn
   Zn53       1.0     0.503180     0.798684     0.404056    Uiso  ? Zn
   Zn54       1.0     0.501467     0.759664     0.372650    Uiso  ? Zn
   Zn55       1.0     0.593131     0.101985     0.599865    Uiso  ? Zn
   Zn56       1.0     0.629721     0.102311     0.637561    Uiso  ? Zn
   Zn57       1.0     0.600091     0.192673     0.504621    Uiso  ? Zn
   Zn58       1.0     0.634132     0.232004     0.505570    Uiso  ? Zn
   Zn59       1.0     0.503753     0.799825     0.593916    Uiso  ? Zn
   Zn60       1.0     0.501786     0.761464     0.629081    Uiso  ? Zn
   C481       1.0     0.369693     0.129478     0.594693    Uiso  ? C
   C482       1.0     0.355772     0.145737     0.580575    Uiso  ? C
   C483       1.0     0.332286     0.147823     0.584528    Uiso  ? C
   H289       1.0     0.323889     0.137710     0.597951    Uiso  ? H
   C484       1.0     0.318734     0.162064     0.571059    Uiso  ? C
   H290       1.0     0.299898     0.163886     0.574539    Uiso  ? H
   C485       1.0     0.329173     0.175966     0.554424    Uiso  ? C
   H291       1.0     0.318423     0.186978     0.544127    Uiso  ? H
   C486       1.0     0.353310     0.174732     0.550416    Uiso  ? C
   C487       1.0     0.366509     0.159390     0.563218    Uiso  ? C
   H292       1.0     0.384562     0.157244     0.560988    Uiso  ? H
   C488       1.0     0.363712     0.190975     0.533626    Uiso  ? C
   C489       1.0     0.408598     0.131228     0.639640    Uiso  ? C
   C490       1.0     0.419195     0.151426     0.650445    Uiso  ? C
   C491       1.0     0.410008     0.160778     0.670420    Uiso  ? C
   H293       1.0     0.396228     0.152526     0.678665    Uiso  ? H
   C492       1.0     0.417696     0.181230     0.679300    Uiso  ? C
   H294       1.0     0.409809     0.186884     0.695370    Uiso  ? H
   C493       1.0     0.436030     0.192551     0.668607    Uiso  ? C
   H295       1.0     0.442833     0.208616     0.675802    Uiso  ? H
   C494       1.0     0.446010     0.183414     0.648373    Uiso  ? C
   C495       1.0     0.436991     0.162422     0.639460    Uiso  ? C
   H296       1.0     0.443227     0.155780     0.624033    Uiso  ? H
   C496       1.0     0.464395     0.196055     0.636885    Uiso  ? C
   C497       1.0     0.416918     0.865331     0.638304    Uiso  ? C
   C498       1.0     0.430498     0.848686     0.651269    Uiso  ? C
   C499       1.0     0.424568     0.842477     0.674131    Uiso  ? C
   H297       1.0     0.409059     0.849760     0.681834    Uiso  ? H
   C500       1.0     0.436931     0.825441     0.685322    Uiso  ? C
   H298       1.0     0.430878     0.820647     0.702447    Uiso  ? H
   C501       1.0     0.454209     0.813855     0.673349    Uiso  ? C
   H299       1.0     0.462099     0.799485     0.682115    Uiso  ? H
   C502       1.0     0.461271     0.820886     0.650862    Uiso  ? C
   C503       1.0     0.449100     0.837992     0.639915    Uiso  ? C
   H300       1.0     0.453593     0.843086     0.622487    Uiso  ? H
   C504       1.0     0.477987     0.807327     0.637415    Uiso  ? C
   C505       1.0     0.372062     0.853217     0.607112    Uiso  ? C
   C506       1.0     0.364414     0.831140     0.598937    Uiso  ? C
   C507       1.0     0.353190     0.815578     0.613170    Uiso  ? C
   H301       1.0     0.351331     0.818781     0.630424    Uiso  ? H
   C508       1.0     0.344480     0.795011     0.604166    Uiso  ? C
   H302       1.0     0.336338     0.782230     0.615213    Uiso  ? H
   C509       1.0     0.347474     0.789588     0.581088    Uiso  ? C
   H303       1.0     0.341816     0.773000     0.575315    Uiso  ? H
   C510       1.0     0.359991     0.804248     0.566356    Uiso  ? C
   C511       1.0     0.367502     0.825755     0.575078    Uiso  ? C
   H304       1.0     0.378094     0.836747     0.564598    Uiso  ? H
   C512       1.0     0.367517     0.796821     0.542895    Uiso  ? C
   C513       1.0     0.399568     0.238914     0.465933    Uiso  ? C
   C514       1.0     0.409402     0.248754     0.444661    Uiso  ? C
   C515       1.0     0.395880     0.262734     0.430320    Uiso  ? C
   H305       1.0     0.379292     0.268994     0.435287    Uiso  ? H
   C516       1.0     0.403936     0.269175     0.408442    Uiso  ? C
   H306       1.0     0.393264     0.280461     0.398140    Uiso  ? H
   C517       1.0     0.425208     0.261904     0.400804    Uiso  ? C
   H307       1.0     0.431177     0.267879     0.384287    Uiso  ? H
   C518       1.0     0.438657     0.246860     0.414473    Uiso  ? C
   C519       1.0     0.431453     0.241840     0.437095    Uiso  ? C
   H308       1.0     0.441260     0.230533     0.448140    Uiso  ? H
   C520       1.0     0.460303     0.237032     0.405102    Uiso  ? C
   C521       1.0     0.398652     0.233920     0.539786    Uiso  ? C
   C522       1.0     0.407119     0.245350     0.561075    Uiso  ? C
   C523       1.0     0.394487     0.263362     0.571419    Uiso  ? C
   H309       1.0     0.378804     0.269665     0.562578    Uiso  ? H
   C524       1.0     0.402463     0.273869     0.592034    Uiso  ? C
   H310       1.0     0.393171     0.288512     0.598838    Uiso  ? H
   C525       1.0     0.422690     0.265790     0.601735    Uiso  ? C
   H311       1.0     0.428890     0.273742     0.617450    Uiso  ? H
   C526       1.0     0.435351     0.248049     0.591509    Uiso  ? C
   C527       1.0     0.427742     0.238112     0.571268    Uiso  ? C
   H312       1.0     0.438062     0.225605     0.562415    Uiso  ? H
   C528       1.0     0.456945     0.240467     0.600517    Uiso  ? C
   C529       1.0     0.360854     0.183386     0.478908    Uiso  ? C
   C530       1.0     0.349006     0.166261     0.465006    Uiso  ? C
   C531       1.0     0.325102     0.164487     0.465070    Uiso  ? C
   H313       1.0     0.314869     0.173898     0.477530    Uiso  ? H
   C532       1.0     0.313791     0.149335     0.450427    Uiso  ? C
   H314       1.0     0.295575     0.147313     0.450662    Uiso  ? H
   C533       1.0     0.326416     0.136437     0.434449    Uiso  ? C
   H315       1.0     0.317384     0.125684     0.422552    Uiso  ? H
   C534       1.0     0.350629     0.137886     0.434111    Uiso  ? C
   C535       1.0     0.361424     0.152685     0.449699    Uiso  ? C
   H316       1.0     0.379745     0.153874     0.449149    Uiso  ? H
   C536       1.0     0.364086     0.123563     0.418467    Uiso  ? C
   C537       1.0     0.525961     0.239376     0.587937    Uiso  ? C
   C538       1.0     0.542163     0.250988     0.572460    Uiso  ? C
   C539       1.0     0.543083     0.274842     0.572539    Uiso  ? C
   H317       1.0     0.533289     0.285612     0.584358    Uiso  ? H
   C540       1.0     0.558426     0.286275     0.557308    Uiso  ? C
   H318       1.0     0.558311     0.305042     0.557845    Uiso  ? H
   C541       1.0     0.572233     0.274158     0.542221    Uiso  ? C
   H319       1.0     0.583046     0.283697     0.530505    Uiso  ? H
   C542       1.0     0.570363     0.249794     0.541639    Uiso  ? C
   C543       1.0     0.554809     0.238505     0.556165    Uiso  ? C
   H320       1.0     0.554346     0.220322     0.556697    Uiso  ? H
   C544       1.0     0.585623     0.236740     0.526866    Uiso  ? C
   C545       1.0     0.530489     0.200523     0.631661    Uiso  ? C
   C546       1.0     0.549781     0.188890     0.642519    Uiso  ? C
   C547       1.0     0.555326     0.193666     0.665730    Uiso  ? C
   H321       1.0     0.544656     0.205486     0.676368    Uiso  ? H
   C548       1.0     0.573587     0.182281     0.676184    Uiso  ? C
   H322       1.0     0.576908     0.186671     0.694403    Uiso  ? H
   C549       1.0     0.586184     0.165918     0.665265    Uiso  ? C
   H323       1.0     0.599688     0.156798     0.675069    Uiso  ? H
   C550       1.0     0.580746     0.160196     0.642558    Uiso  ? C
   C551       1.0     0.562581     0.171849     0.631107    Uiso  ? C
   H324       1.0     0.557769     0.167153     0.613631    Uiso  ? H
   C552       1.0     0.592486     0.141451     0.631261    Uiso  ? C
   C553       1.0     0.405623     0.137199     0.365571    Uiso  ? C
   C554       1.0     0.417196     0.157306     0.354881    Uiso  ? C
   C555       1.0     0.407606     0.168537     0.335659    Uiso  ? C
   H325       1.0     0.391989     0.162002     0.327189    Uiso  ? H
   C556       1.0     0.418270     0.187822     0.326019    Uiso  ? C
   H326       1.0     0.409684     0.196752     0.312265    Uiso  ? H
   C557       1.0     0.438460     0.196157     0.335429    Uiso  ? C
   H327       1.0     0.444718     0.212351     0.329898    Uiso  ? H
   C558       1.0     0.448915     0.185631     0.354637    Uiso  ? C
   C559       1.0     0.438353     0.166012     0.363795    Uiso  ? C
   H328       1.0     0.446640     0.157132     0.378244    Uiso  ? H
   C560       1.0     0.467651     0.197205     0.367024    Uiso  ? C
   C561       1.0     0.361705     0.867506     0.408544    Uiso  ? C
   C562       1.0     0.348731     0.848818     0.420385    Uiso  ? C
   C563       1.0     0.326513     0.842715     0.412381    Uiso  ? C
   H329       1.0     0.319753     0.851208     0.396749    Uiso  ? H
   C564       1.0     0.314112     0.825532     0.424053    Uiso  ? C
   H330       1.0     0.297850     0.819625     0.416871    Uiso  ? H
   C565       1.0     0.323987     0.814636     0.442940    Uiso  ? C
   H331       1.0     0.314160     0.801405     0.450845    Uiso  ? H
   C566       1.0     0.345472     0.821443     0.451189    Uiso  ? C
   C567       1.0     0.357684     0.838775     0.439975    Uiso  ? C
   H332       1.0     0.374810     0.843884     0.445657    Uiso  ? H
   C568       1.0     0.355947     0.809082     0.470477    Uiso  ? C
   C569       1.0     0.407138     0.763049     0.529364    Uiso  ? C
   C570       1.0     0.423474     0.750237     0.543938    Uiso  ? C
   C571       1.0     0.421938     0.725734     0.545084    Uiso  ? C
   H333       1.0     0.408955     0.716422     0.535758    Uiso  ? H
   C572       1.0     0.436368     0.714079     0.560725    Uiso  ? C
   H334       1.0     0.433759     0.696286     0.563853    Uiso  ? H
   C573       1.0     0.451960     0.725510     0.573963    Uiso  ? C
   H335       1.0     0.461353     0.715779     0.586309    Uiso  ? H
   C574       1.0     0.454916     0.749273     0.571453    Uiso  ? C
   C575       1.0     0.439403     0.761918     0.557402    Uiso  ? C
   H336       1.0     0.440119     0.780632     0.556512    Uiso  ? H
   C576       1.0     0.472542     0.761435     0.585545    Uiso  ? C
   O271       1.0     0.391495     0.129698     0.594379    Uiso  ? O
   O272       1.0     0.359219     0.115798     0.608275    Uiso  ? O
   O273       1.0     0.411157     0.127671     0.617552    Uiso  ? O
   O274       1.0     0.396626     0.117723     0.651824    Uiso  ? O
   O275       1.0     0.426239     0.878247     0.623189    Uiso  ? O
   O276       1.0     0.395701     0.866485     0.642781    Uiso  ? O
   O277       1.0     0.377993     0.869258     0.592598    Uiso  ? O
   O278       1.0     0.372584     0.857598     0.628918    Uiso  ? O
   O279       1.0     0.412472     0.232238     0.482004    Uiso  ? O
   O280       1.0     0.377621     0.237139     0.468408    Uiso  ? O
   O281       1.0     0.405028     0.213523     0.534679    Uiso  ? O
   O282       1.0     0.383907     0.244282     0.526883    Uiso  ? O
   O283       1.0     0.385603     0.191380     0.530742    Uiso  ? O
   O284       1.0     0.350861     0.201586     0.519113    Uiso  ? O
   O285       1.0     0.382284     0.182701     0.480399    Uiso  ? O
   O286       1.0     0.348939     0.198044     0.490311    Uiso  ? O
   O287       1.0     0.525405     0.217688     0.589194    Uiso  ? O
   O288       1.0     0.514612     0.251454     0.601916    Uiso  ? O
   O289       1.0     0.527123     0.199561     0.609593    Uiso  ? O
   O290       1.0     0.517862     0.212939     0.643022    Uiso  ? O
   O291       1.0     0.476824     0.185272     0.622249    Uiso  ? O
   O292       1.0     0.465784     0.217867     0.638405    Uiso  ? O
   O293       1.0     0.471748     0.232467     0.586796    Uiso  ? O
   O294       1.0     0.460826     0.239224     0.622035    Uiso  ? O
   O295       1.0     0.417383     0.123322     0.377615    Uiso  ? O
   O296       1.0     0.384255     0.133572     0.361963    Uiso  ? O
   O297       1.0     0.384938     0.117782     0.423449    Uiso  ? O
   O298       1.0     0.355282     0.116521     0.399171    Uiso  ? O
   O299       1.0     0.383649     0.867489     0.409938    Uiso  ? O
   O300       1.0     0.352031     0.882670     0.395934    Uiso  ? O
   O301       1.0     0.404367     0.862074     0.392810    Uiso  ? O
   O302       1.0     0.394537     0.874396     0.358401    Uiso  ? O
   O303       1.0     0.369166     0.820146     0.483969    Uiso  ? O
   O304       1.0     0.354496     0.787421     0.472491    Uiso  ? O
   O305       1.0     0.386609     0.803242     0.534835    Uiso  ? O
   O306       1.0     0.354878     0.783115     0.531584    Uiso  ? O
   O307       1.0     0.407953     0.785095     0.529306    Uiso  ? O
   O308       1.0     0.393931     0.753095     0.515370    Uiso  ? O
   O309       1.0     0.413206     0.781789     0.477249    Uiso  ? O
   O310       1.0     0.394948     0.750746     0.487078    Uiso  ? O
   O311       1.0     0.510517     0.184485     0.376410    Uiso  ? O
   O312       1.0     0.519291     0.213345     0.353586    Uiso  ? O
   O313       1.0     0.530288     0.216703     0.414078    Uiso  ? O
   O314       1.0     0.519519     0.249571     0.398873    Uiso  ? O
   O315       1.0     0.473436     0.225123     0.417566    Uiso  ? O
   O316       1.0     0.465997     0.240093     0.384129    Uiso  ? O
   O317       1.0     0.480799     0.185803     0.380195    Uiso  ? O
   O318       1.0     0.469325     0.219022     0.365353    Uiso  ? O
   O319       1.0     0.424038     0.884288     0.570998    Uiso  ? O
   O320       1.0     0.435749     0.186640     0.494556    Uiso  ? O
   O321       1.0     0.488878     0.180410     0.568363    Uiso  ? O
   O322       1.0     0.435624     0.894913     0.422390    Uiso  ? O
   O323       1.0     0.416092     0.834458     0.493545    Uiso  ? O
   O324       1.0     0.499625     0.177503     0.434314    Uiso  ? O
   Zn61       1.0     0.405129     0.892830     0.600004    Uiso  ? Zn
   Zn62       1.0     0.370805     0.893110     0.636809    Uiso  ? Zn
   Zn63       1.0     0.404226     0.202495     0.499483    Uiso  ? Zn
   Zn64       1.0     0.361892     0.231817     0.500106    Uiso  ? Zn
   Zn65       1.0     0.493044     0.203768     0.595108    Uiso  ? Zn
   Zn66       1.0     0.495701     0.238828     0.631307    Uiso  ? Zn
   Zn67       1.0     0.406561     0.895894     0.403059    Uiso  ? Zn
   Zn68       1.0     0.370142     0.102420     0.366921    Uiso  ? Zn
   Zn69       1.0     0.397100     0.804011     0.499996    Uiso  ? Zn
   Zn70       1.0     0.364390     0.766978     0.500255    Uiso  ? Zn
   Zn71       1.0     0.499812     0.201431     0.408058    Uiso  ? Zn
   Zn72       1.0     0.499632     0.238065     0.370726    Uiso  ? Zn
   H337       1.0     0.447513     0.189045     0.506160    Uiso  ? H
   H338       1.0     0.439928     0.178798     0.480754    Uiso  ? H
   H339       1.0     0.555984     0.814636     0.515680    Uiso  ? H
   H340       1.0     0.566649     0.837078     0.500926    Uiso  ? H
   H341       1.0     0.513990     0.821045     0.552051    Uiso  ? H
   H342       1.0     0.495542     0.837109     0.566694    Uiso  ? H
   H343       1.0     0.569749     0.895391     0.560159    Uiso  ? H
   H344       1.0     0.550982     0.886407     0.579956    Uiso  ? H
   H345       1.0     0.486034     0.174626     0.443295    Uiso  ? H
   H346       1.0     0.514101     0.172697     0.441006    Uiso  ? H
   H347       1.0     0.552579     0.890831     0.426709    Uiso  ? H
   H348       1.0     0.558618     0.121791     0.430802    Uiso  ? H
   H349       1.0     0.573477     0.158910     0.522603    Uiso  ? H
   H350       1.0     0.573940     0.155211     0.494263    Uiso  ? H
   H351       1.0     0.447439     0.883024     0.421032    Uiso  ? H
   H352       1.0     0.438264     0.109852     0.434365    Uiso  ? H
   H353       1.0     0.504571     0.842825     0.417964    Uiso  ? H
   H354       1.0     0.524601     0.827163     0.432545    Uiso  ? H
   H355       1.0     0.432254     0.834758     0.497759    Uiso  ? H
   H356       1.0     0.408958     0.848481     0.487270    Uiso  ? H
   H357       1.0     0.496406     0.165601     0.568615    Uiso  ? H
   H358       1.0     0.484129     0.185973     0.553866    Uiso  ? H
   H359       1.0     0.418312     0.888249     0.555778    Uiso  ? H
   H360       1.0     0.437470     0.874693     0.572237    Uiso  ? H
   C577       1.0     0.416385     0.351950     0.137826    Uiso  ? C
   C578       1.0     0.427536     0.343733     0.159353    Uiso  ? C
   C579       1.0     0.419960     0.323819     0.170002    Uiso  ? C
   H361       1.0     0.405199     0.314684     0.163038    Uiso  ? H
   C580       1.0     0.429969     0.315880     0.190091    Uiso  ? C
   H362       1.0     0.423218     0.301532     0.198500    Uiso  ? H
   C581       1.0     0.448163     0.328144     0.199452    Uiso  ? C
   H363       1.0     0.456052     0.321267     0.214235    Uiso  ? H
   C582       1.0     0.455859     0.348675     0.189566    Uiso  ? C
   C583       1.0     0.446786     0.355593     0.168699    Uiso  ? C
   H364       1.0     0.454108     0.370721     0.159327    Uiso  ? H
   C584       1.0     0.474659     0.361347     0.200195    Uiso  ? C
   C585       1.0     0.368614     0.401072     0.121907    Uiso  ? C
   C586       1.0     0.353027     0.415793     0.135223    Uiso  ? C
   C587       1.0     0.330563     0.408970     0.141202    Uiso  ? C
   H365       1.0     0.322174     0.393266     0.135074    Uiso  ? H
   C588       1.0     0.317008     0.422311     0.156342    Uiso  ? C
   H366       1.0     0.299219     0.417408     0.160057    Uiso  ? H
   C589       1.0     0.326188     0.441553     0.166939    Uiso  ? C
   H367       1.0     0.315934     0.451545     0.179489    Uiso  ? H
   C590       1.0     0.348690     0.448052     0.161881    Uiso  ? C
   C591       1.0     0.361597     0.434962     0.146156    Uiso  ? C
   H368       1.0     0.379041     0.439738     0.144736    Uiso  ? H
   C592       1.0     0.359111     0.467653     0.174100    Uiso  ? C
   C593       1.0     0.376186     0.390356     0.867951    Uiso  ? C
   C594       1.0     0.365025     0.400399     0.847816    Uiso  ? C
   C595       1.0     0.347769     0.388006     0.836052    Uiso  ? C
   H369       1.0     0.342017     0.371929     0.842812    Uiso  ? H
   C596       1.0     0.338397     0.397340     0.816156    Uiso  ? C
   H370       1.0     0.327218     0.386625     0.805701    Uiso  ? H
   C597       1.0     0.344578     0.418523     0.807957    Uiso  ? C
   H371       1.0     0.335212     0.424799     0.793296    Uiso  ? H
   C598       1.0     0.362050     0.431050     0.818846    Uiso  ? C
   C599       1.0     0.372028     0.422157     0.839444    Uiso  ? C
   H372       1.0     0.385442     0.432226     0.847909    Uiso  ? H
   C600       1.0     0.369526     0.452722     0.809067    Uiso  ? C
   C601       1.0     0.419060     0.356380     0.865681    Uiso  ? C
   C602       1.0     0.429168     0.347279     0.844364    Uiso  ? C
   C603       1.0     0.419396     0.328841     0.832216    Uiso  ? C
   H373       1.0     0.403868     0.320748     0.838581    Uiso  ? H
   C604       1.0     0.427260     0.323488     0.810275    Uiso  ? C
   H374       1.0     0.418471     0.310299     0.800640    Uiso  ? H
   C605       1.0     0.445849     0.335259     0.800906    Uiso  ? C
   H375       1.0     0.450189     0.333099     0.783268    Uiso  ? H
   C606       1.0     0.456891     0.351609     0.813615    Uiso  ? C
   C607       1.0     0.449028     0.357240     0.835577    Uiso  ? C
   H376       1.0     0.457479     0.370762     0.844460    Uiso  ? H
   C608       1.0     0.476847     0.364008     0.803550    Uiso  ? C
   C609       1.0     0.528648     0.421942     0.235693    Uiso  ? C
   C610       1.0     0.544759     0.437928     0.247460    Uiso  ? C
   C611       1.0     0.547945     0.438078     0.271521    Uiso  ? C
   H377       1.0     0.538506     0.425945     0.282253    Uiso  ? H
   C612       1.0     0.563989     0.452808     0.281367    Uiso  ? C
   H378       1.0     0.567697     0.451363     0.299897    Uiso  ? H
   C613       1.0     0.578586     0.466262     0.267876    Uiso  ? C
   H379       1.0     0.590842     0.477456     0.276250    Uiso  ? H
   C614       1.0     0.574885     0.467140     0.244081    Uiso  ? C
   C615       1.0     0.557484     0.453117     0.234026    Uiso  ? C
   H380       1.0     0.555295     0.453328     0.215813    Uiso  ? H
   C616       1.0     0.589214     0.481833     0.229714    Uiso  ? C
   C617       1.0     0.474615     0.419726     0.236119    Uiso  ? C
   C618       1.0     0.458164     0.435568     0.247044    Uiso  ? C
   C619       1.0     0.456554     0.437990     0.271385    Uiso  ? C
   H381       1.0     0.468210     0.428830     0.282163    Uiso  ? H
   C620       1.0     0.439805     0.452080     0.281310    Uiso  ? C
   H382       1.0     0.438485     0.452966     0.299513    Uiso  ? H
   C621       1.0     0.423699     0.463023     0.267638    Uiso  ? C
   H383       1.0     0.409469     0.472812     0.275438    Uiso  ? H
   C622       1.0     0.426267     0.462304     0.243107    Uiso  ? C
   C623       1.0     0.443780     0.448809     0.233050    Uiso  ? C
   H384       1.0     0.444614     0.447247     0.214530    Uiso  ? H
   C624       1.0     0.410295     0.475128     0.228131    Uiso  ? C
   C625       1.0     0.545358     0.380891     0.206038    Uiso  ? C
   C626       1.0     0.568755     0.374735     0.198087    Uiso  ? C
   C627       1.0     0.584302     0.362271     0.211798    Uiso  ? C
   H385       1.0     0.579512     0.356838     0.228986    Uiso  ? H
   C628       1.0     0.606147     0.356227     0.203198    Uiso  ? C
   H386       1.0     0.618757     0.348231     0.213921    Uiso  ? H
   C629       1.0     0.612104     0.361405     0.180946    Uiso  ? C
   H387       1.0     0.629068     0.355404     0.175181    Uiso  ? H
   C630       1.0     0.596689     0.374022     0.166955    Uiso  ? C
   C631       1.0     0.575323     0.380162     0.175270    Uiso  ? C
   H388       1.0     0.563003     0.388776     0.164411    Uiso  ? H
   C632       1.0     0.602493     0.378690     0.142100    Uiso  ? C
   C633       1.0     0.402123     0.528302     0.224663    Uiso  ? C
   C634       1.0     0.413873     0.546340     0.238791    Uiso  ? C
   C635       1.0     0.402880     0.553887     0.259447    Uiso  ? C
   H389       1.0     0.386336     0.546290     0.264180    Uiso  ? H
   C636       1.0     0.411231     0.573199     0.269892    Uiso  ? C
   H390       1.0     0.402950     0.578984     0.285522    Uiso  ? H
   C637       1.0     0.430801     0.584400     0.261905    Uiso  ? C
   H391       1.0     0.436531     0.600414     0.270898    Uiso  ? H
   C638       1.0     0.442975     0.575507     0.242744    Uiso  ? C
   C639       1.0     0.433256     0.557443     0.230825    Uiso  ? C
   H392       1.0     0.441574     0.552241     0.214753    Uiso  ? H
   C640       1.0     0.463418     0.587827     0.234103    Uiso  ? C
   C641       1.0     0.363808     0.536229     0.185073    Uiso  ? C
   C642       1.0     0.352907     0.556832     0.175107    Uiso  ? C
   C643       1.0     0.335775     0.568461     0.187581    Uiso  ? C
   H393       1.0     0.330848     0.563225     0.205089    Uiso  ? H
   C644       1.0     0.326952     0.589458     0.179228    Uiso  ? C
   H394       1.0     0.314644     0.599417     0.189774    Uiso  ? H
   C645       1.0     0.336166     0.599515     0.159287    Uiso  ? C
   H395       1.0     0.328820     0.615781     0.154304    Uiso  ? H
   C646       1.0     0.353269     0.588304     0.147383    Uiso  ? C
   C647       1.0     0.360595     0.565985     0.154223    Uiso  ? C
   H396       1.0     0.373263     0.556309     0.143764    Uiso  ? H
   C648       1.0     0.362626     0.598517     0.126981    Uiso  ? C
   C649       1.0     0.640650     0.414294     0.124376    Uiso  ? C
   C650       1.0     0.653387     0.429215     0.140087    Uiso  ? C
   C651       1.0     0.676493     0.425734     0.143981    Uiso  ? C
   H397       1.0     0.685585     0.413119     0.133017    Uiso  ? H
   C652       1.0     0.689047     0.438307     0.159993    Uiso  ? C
   H398       1.0     0.707223     0.435947     0.162360    Uiso  ? H
   C653       1.0     0.677640     0.455330     0.172887    Uiso  ? C
   H399       1.0     0.687519     0.466202     0.183971    Uiso  ? H
   C654       1.0     0.653541     0.458176     0.170391    Uiso  ? C
   C655       1.0     0.641511     0.445005     0.154012    Uiso  ? C
   H400       1.0     0.622912     0.446240     0.152140    Uiso  ? H
   C656       1.0     0.641221     0.475838     0.183286    Uiso  ? C
   C657       1.0     0.592357     0.359773     0.873130    Uiso  ? C
   C658       1.0     0.577004     0.346505     0.857163    Uiso  ? C
   C659       1.0     0.580082     0.322980     0.854603    Uiso  ? C
   H401       1.0     0.591105     0.313577     0.865140    Uiso  ? H
   C660       1.0     0.568124     0.312107     0.837258    Uiso  ? C
   H402       1.0     0.569395     0.293203     0.835040    Uiso  ? H
   C661       1.0     0.552701     0.323847     0.822648    Uiso  ? C
   H403       1.0     0.543920     0.314970     0.808678    Uiso  ? H
   C662       1.0     0.547806     0.346603     0.827531    Uiso  ? C
   C663       1.0     0.559644     0.357867     0.844735    Uiso  ? C
   H404       1.0     0.555691     0.376110     0.848744    Uiso  ? H
   C664       1.0     0.532067     0.359470     0.813571    Uiso  ? C
   C665       1.0     0.471453     0.407212     0.771193    Uiso  ? C
   C666       1.0     0.451157     0.417753     0.760466    Uiso  ? C
   C667       1.0     0.442639     0.409696     0.739283    Uiso  ? C
   H405       1.0     0.450764     0.394570     0.731235    Uiso  ? H
   C668       1.0     0.423210     0.419269     0.729641    Uiso  ? C
   H406       1.0     0.415910     0.412638     0.714228    Uiso  ? H
   C669       1.0     0.411027     0.435868     0.741477    Uiso  ? C
   H407       1.0     0.396053     0.442811     0.733476    Uiso  ? H
   C670       1.0     0.419370     0.445077     0.761787    Uiso  ? C
   C671       1.0     0.439685     0.435598     0.771676    Uiso  ? C
   H408       1.0     0.445137     0.440874     0.788236    Uiso  ? H
   C672       1.0     0.406488     0.462849     0.774007    Uiso  ? C
   O325       1.0     0.418927     0.372828     0.131811    Uiso  ? O
   O326       1.0     0.404472     0.338821     0.125149    Uiso  ? O
   O327       1.0     0.383588     0.410358     0.109658    Uiso  ? O
   O328       1.0     0.366471     0.379481     0.123534    Uiso  ? O
   O329       1.0     0.387676     0.403299     0.881473    Uiso  ? O
   O330       1.0     0.376013     0.368278     0.871579    Uiso  ? O
   O331       1.0     0.428331     0.373402     0.876096    Uiso  ? O
   O332       1.0     0.399884     0.348840     0.872629    Uiso  ? O
   O333       1.0     0.528195     0.420184     0.213614    Uiso  ? O
   O334       1.0     0.516822     0.408310     0.248475    Uiso  ? O
   O335       1.0     0.478090     0.420537     0.214313    Uiso  ? O
   O336       1.0     0.486831     0.406253     0.248374    Uiso  ? O
   O337       1.0     0.489158     0.371501     0.187372    Uiso  ? O
   O338       1.0     0.475251     0.363630     0.222072    Uiso  ? O
   O339       1.0     0.535694     0.399149     0.198421    Uiso  ? O
   O340       1.0     0.534647     0.368091     0.220175    Uiso  ? O
   O341       1.0     0.405758     0.527351     0.202782    Uiso  ? O
   O342       1.0     0.388748     0.513746     0.234238    Uiso  ? O
   O343       1.0     0.385111     0.532042     0.181547    Uiso  ? O
   O344       1.0     0.351741     0.522692     0.197287    Uiso  ? O
   O345       1.0     0.374157     0.479688     0.164624    Uiso  ? O
   O346       1.0     0.355436     0.470000     0.195495    Uiso  ? O
   O347       1.0     0.414884     0.477494     0.206881    Uiso  ? O
   O348       1.0     0.391984     0.484128     0.236412    Uiso  ? O
   O349       1.0     0.626891     0.423224     0.109973    Uiso  ? O
   O350       1.0     0.642770     0.392612     0.125904    Uiso  ? O
   O351       1.0     0.590146     0.390685     0.129576    Uiso  ? O
   O352       1.0     0.622442     0.372481     0.134306    Uiso  ? O
   O353       1.0     0.591415     0.381522     0.872145    Uiso  ? O
   O354       1.0     0.605226     0.350264     0.887807    Uiso  ? O
   O355       1.0     0.625903     0.419189     0.882832    Uiso  ? O
   O356       1.0     0.644527     0.387208     0.874487    Uiso  ? O
   O357       1.0     0.518397     0.374023     0.822634    Uiso  ? O
   O358       1.0     0.533994     0.358075     0.792028    Uiso  ? O
   O359       1.0     0.490465     0.376099     0.816750    Uiso  ? O
   O360       1.0     0.479444     0.364768     0.781592    Uiso  ? O
   O361       1.0     0.482602     0.417849     0.786486    Uiso  ? O
   O362       1.0     0.478037     0.387127     0.763938    Uiso  ? O
   O363       1.0     0.539415     0.411456     0.786474    Uiso  ? O
   O364       1.0     0.528245     0.398431     0.753053    Uiso  ? O
   O365       1.0     0.617081     0.534893     0.176840    Uiso  ? O
   O366       1.0     0.638521     0.540028     0.208050    Uiso  ? O
   O367       1.0     0.584174     0.523973     0.213934    Uiso  ? O
   O368       1.0     0.616650     0.536578     0.228339    Uiso  ? O
   O369       1.0     0.579964     0.495043     0.215083    Uiso  ? O
   O370       1.0     0.610525     0.482708     0.234149    Uiso  ? O
   O371       1.0     0.619605     0.476771     0.181061    Uiso  ? O
   O372       1.0     0.651352     0.489381     0.196840    Uiso  ? O
   O373       1.0     0.440311     0.417794     0.105096    Uiso  ? O
   O374       1.0     0.493776     0.423747     0.165565    Uiso  ? O
   O375       1.0     0.424726     0.494032     0.158438    Uiso  ? O
   O376       1.0     0.569157     0.422759     0.897806    Uiso  ? O
   O377       1.0     0.511740     0.430606     0.828763    Uiso  ? O
   O378       1.0     0.581811     0.500299     0.156723    Uiso  ? O
   Zn73       1.0     0.414807     0.393055     0.102756    Uiso  ? Zn
   Zn74       1.0     0.379839     0.352214     0.103693    Uiso  ? Zn
   Zn75       1.0     0.500915     0.403942     0.194532    Uiso  ? Zn
   Zn76       1.0     0.505233     0.375408     0.239158    Uiso  ? Zn
   Zn77       1.0     0.399117     0.497789     0.182728    Uiso  ? Zn
   Zn78       1.0     0.361441     0.495801     0.219016    Uiso  ? Zn
   Zn79       1.0     0.598339     0.402868     0.899405    Uiso  ? Zn
   Zn80       1.0     0.634601     0.367665     0.100349    Uiso  ? Zn
   Zn81       1.0     0.510203     0.404988     0.805429    Uiso  ? Zn
   Zn82       1.0     0.511408     0.370568     0.765806    Uiso  ? Zn
   Zn83       1.0     0.600448     0.505776     0.186182    Uiso  ? Zn
   Zn84       1.0     0.636083     0.506299     0.223833    Uiso  ? Zn
   C673       1.0     0.581454     0.645399     0.861368    Uiso  ? C
   C674       1.0     0.568886     0.654583     0.841558    Uiso  ? C
   C675       1.0     0.574486     0.676085     0.832117    Uiso  ? C
   H409       1.0     0.589037     0.686109     0.838451    Uiso  ? H
   C676       1.0     0.564552     0.683345     0.811636    Uiso  ? C
   H410       1.0     0.570764     0.698197     0.802783    Uiso  ? H
   C677       1.0     0.547703     0.670356     0.800923    Uiso  ? C
   H411       1.0     0.539780     0.676707     0.785424    Uiso  ? H
   C678       1.0     0.540067     0.650565     0.811160    Uiso  ? C
   C679       1.0     0.551009     0.642493     0.831209    Uiso  ? C
   H412       1.0     0.545023     0.626243     0.837701    Uiso  ? H
   C680       1.0     0.522535     0.636512     0.799676    Uiso  ? C
   C681       1.0     0.632655     0.599433     0.875317    Uiso  ? C
   C682       1.0     0.647447     0.586080     0.859707    Uiso  ? C
   C683       1.0     0.669445     0.595226     0.853810    Uiso  ? C
   H413       1.0     0.674957     0.610751     0.862045    Uiso  ? H
   C684       1.0     0.682346     0.584864     0.836677    Uiso  ? C
   H414       1.0     0.699111     0.591881     0.831039    Uiso  ? H
   C685       1.0     0.673367     0.566664     0.824299    Uiso  ? C
   H415       1.0     0.682818     0.561092     0.809169    Uiso  ? H
   C686       1.0     0.652153     0.556335     0.830247    Uiso  ? C
   C687       1.0     0.638773     0.566999     0.847382    Uiso  ? C
   H416       1.0     0.621445     0.560701     0.849983    Uiso  ? H
   C688       1.0     0.643031     0.536686     0.816508    Uiso  ? C
   C689       1.0     0.624123     0.611087     0.129966    Uiso  ? C
   C690       1.0     0.634800     0.601726     0.151238    Uiso  ? C
   C691       1.0     0.648863     0.615340     0.164874    Uiso  ? C
   H417       1.0     0.651297     0.633287     0.160228    Uiso  ? H
   C692       1.0     0.658489     0.606347     0.185052    Uiso  ? C
   H418       1.0     0.670484     0.617064     0.195527    Uiso  ? H
   C693       1.0     0.652179     0.584440     0.192969    Uiso  ? C
   H419       1.0     0.656444     0.578833     0.210063    Uiso  ? H
   C694       1.0     0.639114     0.569576     0.178968    Uiso  ? C
   C695       1.0     0.630602     0.578977     0.158074    Uiso  ? C
   H420       1.0     0.619922     0.568372     0.146878    Uiso  ? H
   C696       1.0     0.632101     0.546642     0.187768    Uiso  ? C
   C697       1.0     0.582161     0.643517     0.132500    Uiso  ? C
   C698       1.0     0.571909     0.652344     0.154134    Uiso  ? C
   C699       1.0     0.576441     0.675421     0.160365    Uiso  ? C
   H421       1.0     0.588523     0.686524     0.150861    Uiso  ? H
   C700       1.0     0.565587     0.685025     0.179898    Uiso  ? C
   H422       1.0     0.571113     0.702009     0.186642    Uiso  ? H
   C701       1.0     0.549616     0.672976     0.191852    Uiso  ? C
   H423       1.0     0.540909     0.681123     0.206350    Uiso  ? H
   C702       1.0     0.543792     0.650591     0.185030    Uiso  ? C
   C703       1.0     0.554825     0.640149     0.166036    Uiso  ? C
   H424       1.0     0.549563     0.622683     0.159991    Uiso  ? H
   C704       1.0     0.526951     0.636837     0.197599    Uiso  ? C
   C705       1.0     0.468498     0.579329     0.757568    Uiso  ? C
   C706       1.0     0.452418     0.563334     0.746878    Uiso  ? C
   C707       1.0     0.452034     0.560291     0.722914    Uiso  ? C
   H425       1.0     0.461880     0.570885     0.710582    Uiso  ? H
   C708       1.0     0.436720     0.544169     0.713506    Uiso  ? C
   H426       1.0     0.435720     0.542677     0.694840    Uiso  ? H
   C709       1.0     0.423018     0.530290     0.727186    Uiso  ? C
   H427       1.0     0.411355     0.518188     0.719617    Uiso  ? H
   C710       1.0     0.423579     0.533037     0.751460    Uiso  ? C
   C711       1.0     0.438827     0.549282     0.760912    Uiso  ? C
   H428       1.0     0.440887     0.549548     0.779679    Uiso  ? H
   C712       1.0     0.408944     0.518934     0.766445    Uiso  ? C
   C713       1.0     0.526524     0.584802     0.756902    Uiso  ? C
   C714       1.0     0.543987     0.569315     0.746417    Uiso  ? C
   C715       1.0     0.542961     0.564554     0.722938    Uiso  ? C
   H429       1.0     0.531197     0.574024     0.711387    Uiso  ? H
   C716       1.0     0.557563     0.548179     0.712940    Uiso  ? C
   H430       1.0     0.556820     0.544899     0.694919    Uiso  ? H
   C717       1.0     0.573436     0.536555     0.726850    Uiso  ? C
   H431       1.0     0.583868     0.524203     0.718914    Uiso  ? H
   C718       1.0     0.574000     0.540613     0.750356    Uiso  ? C
   C719       1.0     0.560179     0.557839     0.760014    Uiso  ? C
   H432       1.0     0.560476     0.560039     0.778560    Uiso  ? H
   C720       1.0     0.591323     0.528588     0.764846    Uiso  ? C
   C721       1.0     0.464654     0.632988     0.799283    Uiso  ? C
   C722       1.0     0.447242     0.646778     0.811109    Uiso  ? C
   C723       1.0     0.439484     0.667573     0.801536    Uiso  ? C
   H433       1.0     0.446039     0.673489     0.785395    Uiso  ? H
   C724       1.0     0.422038     0.679739     0.812886    Uiso  ? C
   H434       1.0     0.416333     0.695119     0.804552    Uiso  ? H
   C725       1.0     0.411046     0.670873     0.832578    Uiso  ? C
   H435       1.0     0.397611     0.680490     0.840854    Uiso  ? H
   C726       1.0     0.417787     0.649402     0.841436    Uiso  ? C
   C727       1.0     0.437132     0.638461     0.831492    Uiso  ? C
   H436       1.0     0.444404     0.623060     0.839646    Uiso  ? H
   C728       1.0     0.405348     0.639321     0.860560    Uiso  ? C
   C729       1.0     0.601603     0.472779     0.770590    Uiso  ? C
   C730       1.0     0.588924     0.455084     0.757131    Uiso  ? C
   C731       1.0     0.592913     0.452590     0.733103    Uiso  ? C
   H437       1.0     0.605708     0.463098     0.724409    Uiso  ? H
   C732       1.0     0.580324     0.436813     0.720374    Uiso  ? C
   H438       1.0     0.582335     0.436465     0.702351    Uiso  ? H
   C733       1.0     0.563725     0.423001     0.730919    Uiso  ? C
   H439       1.0     0.553535     0.411671     0.720562    Uiso  ? H
   C734       1.0     0.559170     0.424763     0.754228    Uiso  ? C
   C735       1.0     0.571483     0.441517     0.767951    Uiso  ? C
   H440       1.0     0.568318     0.442674     0.786207    Uiso  ? H
   C736       1.0     0.541312     0.411312     0.764892    Uiso  ? C
   C737       1.0     0.639362     0.468591     0.808724    Uiso  ? C
   C738       1.0     0.650431     0.448762     0.820035    Uiso  ? C
   C739       1.0     0.671006     0.439673     0.811296    Uiso  ? C
   H441       1.0     0.677606     0.445729     0.794845    Uiso  ? H
   C740       1.0     0.681543     0.421512     0.821816    Uiso  ? C
   H442       1.0     0.698137     0.416344     0.815684    Uiso  ? H
   C741       1.0     0.671531     0.410151     0.840806    Uiso  ? C
   H443       1.0     0.680058     0.395088     0.847953    Uiso  ? H
   C742       1.0     0.651096     0.418748     0.849895    Uiso  ? C
   C743       1.0     0.640773     0.438076     0.839233    Uiso  ? C
   H444       1.0     0.625765     0.445331     0.846775    Uiso  ? H
   C744       1.0     0.640022     0.407955     0.869918    Uiso  ? C
   C745       1.0     0.358545     0.589268     0.872480    Uiso  ? C
   C746       1.0     0.345245     0.574333     0.857535    Uiso  ? C
   C747       1.0     0.323009     0.580817     0.849827    Uiso  ? C
   H445       1.0     0.314767     0.596228     0.857202    Uiso  ? H
   C748       1.0     0.311558     0.568040     0.832981    Uiso  ? C
   H446       1.0     0.294732     0.573923     0.828071    Uiso  ? H
   C749       1.0     0.322654     0.549302     0.822320    Uiso  ? C
   H447       1.0     0.312712     0.538211     0.811214    Uiso  ? H
   C750       1.0     0.345031     0.542953     0.829377    Uiso  ? C
   C751       1.0     0.355771     0.554997     0.847286    Uiso  ? C
   H448       1.0     0.373242     0.550433     0.852150    Uiso  ? H
   C752       1.0     0.356675     0.523676     0.817789    Uiso  ? C
   C753       1.0     0.400893     0.633723     0.134043    Uiso  ? C
   C754       1.0     0.409583     0.641395     0.156158    Uiso  ? C
   C755       1.0     0.395870     0.656648     0.169350    Uiso  ? C
   H449       1.0     0.379556     0.663555     0.162880    Uiso  ? H
   C756       1.0     0.402315     0.663063     0.191388    Uiso  ? C
   H450       1.0     0.391339     0.673400     0.202348    Uiso  ? H
   C757       1.0     0.423002     0.654801     0.200332    Uiso  ? C
   H451       1.0     0.428775     0.661423     0.217534    Uiso  ? H
   C758       1.0     0.437868     0.640604     0.187258    Uiso  ? C
   C759       1.0     0.430484     0.633208     0.165391    Uiso  ? C
   H452       1.0     0.440359     0.620531     0.156497    Uiso  ? H
   C760       1.0     0.459316     0.631897     0.197360    Uiso  ? C
   C761       1.0     0.529614     0.592073     0.235193    Uiso  ? C
   C762       1.0     0.550807     0.581343     0.244916    Uiso  ? C
   C763       1.0     0.557947     0.586574     0.266700    Uiso  ? C
   H453       1.0     0.549127     0.599295     0.276884    Uiso  ? H
   C764       1.0     0.577191     0.575984     0.276832    Uiso  ? C
   H454       1.0     0.583024     0.579592     0.294315    Uiso  ? H
   C765       1.0     0.589130     0.559260     0.263976    Uiso  ? C
   H455       1.0     0.603167     0.549198     0.271944    Uiso  ? H
   C766       1.0     0.582182     0.554276     0.241038    Uiso  ? C
   C767       1.0     0.563012     0.565385     0.231806    Uiso  ? C
   H456       1.0     0.557657     0.562405     0.214563    Uiso  ? H
   C768       1.0     0.594598     0.537918     0.226726    Uiso  ? C
   O379       1.0     0.580065     0.624350     0.866384    Uiso  ? O
   O380       1.0     0.593400     0.658855     0.873441    Uiso  ? O
   O381       1.0     0.617985     0.589597     0.887963    Uiso  ? O
   O382       1.0     0.633573     0.621073     0.874273    Uiso  ? O
   O383       1.0     0.615979     0.597449     0.115211    Uiso  ? O
   O384       1.0     0.624113     0.632793     0.125939    Uiso  ? O
   O385       1.0     0.572643     0.627107     0.121932    Uiso  ? O
   O386       1.0     0.602242     0.650697     0.126871    Uiso  ? O
   O387       1.0     0.467641     0.582383     0.779120    Uiso  ? O
   O388       1.0     0.482659     0.590383     0.745274    Uiso  ? O
   O389       1.0     0.524748     0.585404     0.778747    Uiso  ? O
   O390       1.0     0.509709     0.592608     0.745063    Uiso  ? O
   O391       1.0     0.508534     0.624827     0.811478    Uiso  ? O
   O392       1.0     0.522448     0.634658     0.777385    Uiso  ? O
   O393       1.0     0.479389     0.622458     0.811538    Uiso  ? O
   O394       1.0     0.464743     0.630760     0.777769    Uiso  ? O
   O395       1.0     0.599391     0.473966     0.792410    Uiso  ? O
   O396       1.0     0.611536     0.489009     0.759380    Uiso  ? O
   O397       1.0     0.618086     0.472846     0.813703    Uiso  ? O
   O398       1.0     0.650196     0.480904     0.794337    Uiso  ? O
   O399       1.0     0.629215     0.523597     0.826694    Uiso  ? O
   O400       1.0     0.646011     0.535605     0.795059    Uiso  ? O
   O401       1.0     0.587773     0.527773     0.786675    Uiso  ? O
   O402       1.0     0.606984     0.515685     0.756683    Uiso  ? O
   O403       1.0     0.373937     0.580348     0.885402    Uiso  ? O
   O404       1.0     0.353340     0.610512     0.873923    Uiso  ? O
   O405       1.0     0.408618     0.618063     0.865424    Uiso  ? O
   O406       1.0     0.392835     0.651538     0.874017    Uiso  ? O
   O407       1.0     0.411581     0.617743     0.123746    Uiso  ? O
   O408       1.0     0.381728     0.641304     0.125469    Uiso  ? O
   O409       1.0     0.375788     0.587089     0.113781    Uiso  ? O
   O410       1.0     0.359794     0.620339     0.123496    Uiso  ? O
   O411       1.0     0.474393     0.622597     0.184539    Uiso  ? O
   O412       1.0     0.461144     0.631449     0.219298    Uiso  ? O
   O413       1.0     0.526836     0.614896     0.195754    Uiso  ? O
   O414       1.0     0.512784     0.646933     0.210762    Uiso  ? O
   O415       1.0     0.528173     0.593212     0.213680    Uiso  ? O
   O416       1.0     0.515693     0.603459     0.247431    Uiso  ? O
   O417       1.0     0.478216     0.578097     0.221285    Uiso  ? O
   O418       1.0     0.464427     0.609201     0.237475    Uiso  ? O
   O419       1.0     0.387633     0.462355     0.815968    Uiso  ? O
   O420       1.0     0.356992     0.463446     0.794857    Uiso  ? O
   O421       1.0     0.409550     0.466124     0.795421    Uiso  ? O
   O422       1.0     0.393492     0.476394     0.762466    Uiso  ? O
   O423       1.0     0.412003     0.519621     0.787892    Uiso  ? O
   O424       1.0     0.394115     0.505472     0.757935    Uiso  ? O
   O425       1.0     0.371594     0.512144     0.828862    Uiso  ? O
   O426       1.0     0.354710     0.520851     0.795965    Uiso  ? O
   O427       1.0     0.560838     0.581976     0.893536    Uiso  ? O
   O428       1.0     0.491560     0.566584     0.821900    Uiso  ? O
   O429       1.0     0.579025     0.505729     0.838444    Uiso  ? O
   O430       1.0     0.431807     0.576912     0.892154    Uiso  ? O
   O431       1.0     0.492586     0.573973     0.169322    Uiso  ? O
   O432       1.0     0.424961     0.505436     0.837607    Uiso  ? O
   Zn85       1.0     0.586982     0.607280     0.896502    Uiso  ? Zn
   Zn86       1.0     0.619963     0.647002     0.893717    Uiso  ? Zn
   Zn87       1.0     0.495495     0.592948     0.798130    Uiso  ? Zn
   Zn88       1.0     0.493493     0.622624     0.757175    Uiso  ? Zn
   Zn89       1.0     0.602683     0.505330     0.812140    Uiso  ? Zn
   Zn90       1.0     0.639569     0.508207     0.773192    Uiso  ? Zn
   Zn91       1.0     0.403339     0.598776     0.894615    Uiso  ? Zn
   Zn92       1.0     0.365876     0.637705     0.894187    Uiso  ? Zn
   Zn93       1.0     0.495861     0.596995     0.196992    Uiso  ? Zn
   Zn94       1.0     0.494119     0.629329     0.235904    Uiso  ? Zn
   Zn95       1.0     0.399999     0.497584     0.812533    Uiso  ? Zn
   Zn96       1.0     0.363544     0.493013     0.775544    Uiso  ? Zn
   H457       1.0     0.498801     0.552475     0.817664    Uiso  ? H
   H458       1.0     0.481079     0.568023     0.834841    Uiso  ? H
   H459       1.0     0.496175     0.417672     0.149743    Uiso  ? H
   H460       1.0     0.490822     0.440198     0.167580    Uiso  ? H
   H461       1.0     0.566257     0.506217     0.154240    Uiso  ? H
   H462       1.0     0.589331     0.490107     0.145455    Uiso  ? H
   H463       1.0     0.568656     0.439529     0.102672    Uiso  ? H
   H464       1.0     0.555926     0.415955     0.890350    Uiso  ? H
   H465       1.0     0.440455     0.499488     0.835400    Uiso  ? H
   H466       1.0     0.421609     0.515421     0.850086    Uiso  ? H
   H467       1.0     0.455717     0.414176     0.111118    Uiso  ? H
   H468       1.0     0.436513     0.433689     0.100375    Uiso  ? H
   H469       1.0     0.507016     0.445769     0.823429    Uiso  ? H
   H470       1.0     0.513904     0.427796     0.844762    Uiso  ? H
   H471       1.0     0.445672     0.583546     0.885856    Uiso  ? H
   H472       1.0     0.429638     0.559879     0.893465    Uiso  ? H
   H473       1.0     0.439981     0.489628     0.163061    Uiso  ? H
   H474       1.0     0.419861     0.497446     0.143022    Uiso  ? H
   H475       1.0     0.499685     0.576596     0.154823    Uiso  ? H
   H476       1.0     0.482748     0.560608     0.170222    Uiso  ? H
   H477       1.0     0.567397     0.517368     0.839806    Uiso  ? H
   H478       1.0     0.580885     0.493945     0.849798    Uiso  ? H
   H479       1.0     0.551206     0.580005     0.105919    Uiso  ? H
   H480       1.0     0.557118     0.574685     0.878445    Uiso  ? H
   H481       1.0     0.537653     0.270883     0.357710    Uiso  ? H
   N1         1.0     0.502867     0.264231     0.348590    Uiso  ? N
   H482       1.0     0.468915     0.259161     0.335573    Uiso  ? H
   C769       1.0     0.522815     0.276172     0.346553    Uiso  ? C
   C770       1.0     0.484915     0.268968     0.334535    Uiso  ? C
   C771       1.0     0.525284     0.293633     0.330320    Uiso  ? C
   C772       1.0     0.485893     0.286687     0.318275    Uiso  ? C
   H483       1.0     0.541029     0.302263     0.330262    Uiso  ? H
   H484       1.0     0.471326     0.290061     0.307297    Uiso  ? H
   C773       1.0     0.506683     0.299384     0.315774    Uiso  ? C
   C774       1.0     0.507817     0.319335     0.298983    Uiso  ? C
   H485       1.0     0.471713     0.329176     0.304047    Uiso  ? H
   H486       1.0     0.543315     0.315789     0.289516    Uiso  ? H
   C775       1.0     0.487753     0.332770     0.295399    Uiso  ? C
   C776       1.0     0.527203     0.323826     0.286545    Uiso  ? C
   C777       1.0     0.487391     0.348975     0.277538    Uiso  ? C
   C778       1.0     0.526239     0.339914     0.268517    Uiso  ? C
   H487       1.0     0.472436     0.359677     0.274046    Uiso  ? H
   N2         1.0     0.506400     0.352498     0.264722    Uiso  ? N
   H488       1.0     0.541311     0.343244     0.258140    Uiso  ? H
   H489       1.0     0.467066     0.750719     0.333292    Uiso  ? H
   N3         1.0     0.498649     0.737073     0.346809    Uiso  ? N
   H490       1.0     0.529277     0.720095     0.359065    Uiso  ? H
   C779       1.0     0.480542     0.737459     0.331991    Uiso  ? C
   C780       1.0     0.515245     0.720419     0.346224    Uiso  ? C
   C781       1.0     0.480166     0.721665     0.313871    Uiso  ? C
   C782       1.0     0.513880     0.703670     0.329601    Uiso  ? C
   H491       1.0     0.467563     0.723739     0.300702    Uiso  ? H
   H492       1.0     0.527131     0.690110     0.330087    Uiso  ? H
   C783       1.0     0.497141     0.704461     0.313025    Uiso  ? C
   C784       1.0     0.496598     0.686476     0.294841    Uiso  ? C
   H493       1.0     0.459589     0.681000     0.297875    Uiso  ? H
   H494       1.0     0.532777     0.688492     0.287051    Uiso  ? H
   C785       1.0     0.475723     0.675786     0.289255    Uiso  ? C
   C786       1.0     0.516700     0.679696     0.283213    Uiso  ? C
   C787       1.0     0.475769     0.658304     0.272680    Uiso  ? C
   C788       1.0     0.515482     0.662778     0.266063    Uiso  ? C
   H495       1.0     0.459962     0.649870     0.267981    Uiso  ? H
   N4         1.0     0.495236     0.652553     0.260593    Uiso  ? N
   H496       1.0     0.531717     0.657417     0.258140    Uiso  ? H
   H497       1.0     0.527107     0.718203     0.637571    Uiso  ? H
   N5         1.0     0.498650     0.735936     0.651713    Uiso  ? N
   H498       1.0     0.472558     0.753263     0.670610    Uiso  ? H
   C789       1.0     0.513904     0.718272     0.650879    Uiso  ? C
   C790       1.0     0.483163     0.737792     0.668926    Uiso  ? C
   C791       1.0     0.512900     0.700963     0.667286    Uiso  ? C
   C792       1.0     0.480851     0.719967     0.685490    Uiso  ? C
   H499       1.0     0.525295     0.687250     0.666306    Uiso  ? H
   H500       1.0     0.467769     0.721622     0.698234    Uiso  ? H
   C793       1.0     0.495739     0.700630     0.684033    Uiso  ? C
   C794       1.0     0.495607     0.681868     0.701267    Uiso  ? C
   H501       1.0     0.494867     0.704109     0.731331    Uiso  ? H
   H502       1.0     0.498854     0.653015     0.676564    Uiso  ? H
   C795       1.0     0.494147     0.686344     0.724714    Uiso  ? C
   C796       1.0     0.496528     0.658448     0.694020    Uiso  ? C
   C797       1.0     0.491819     0.668510     0.740405    Uiso  ? C
   C798       1.0     0.495842     0.641307     0.711332    Uiso  ? C
   H503       1.0     0.490088     0.672734     0.759007    Uiso  ? H
   N6         1.0     0.493843     0.646461     0.733352    Uiso  ? N
   H504       1.0     0.497441     0.623753     0.706619    Uiso  ? H
   H505       1.0     0.522768     0.283210     0.633344    Uiso  ? H
   N7         1.0     0.500368     0.263855     0.655329    Uiso  ? N
   H506       1.0     0.480544     0.246244     0.679978    Uiso  ? H
   C799       1.0     0.514765     0.281849     0.650239    Uiso  ? C
   C800       1.0     0.491081     0.260965     0.676564    Uiso  ? C
   C801       1.0     0.519708     0.298190     0.666335    Uiso  ? C
   C802       1.0     0.494879     0.277340     0.693217    Uiso  ? C
   H507       1.0     0.530633     0.312541     0.662779    Uiso  ? H
   H508       1.0     0.487451     0.275711     0.709872    Uiso  ? H
   C803       1.0     0.509495     0.296459     0.687988    Uiso  ? C
   C804       1.0     0.514302     0.313985     0.705513    Uiso  ? C
   H509       1.0     0.519842     0.289308     0.732445    Uiso  ? H
   H510       1.0     0.507117     0.342727     0.683615    Uiso  ? H
   C805       1.0     0.517678     0.307161     0.728451    Uiso  ? C
   C806       1.0     0.510715     0.337422     0.701013    Uiso  ? C
   C807       1.0     0.517731     0.323976     0.745866    Uiso  ? C
   C808       1.0     0.509104     0.353060     0.718994    Uiso  ? C
   H511       1.0     0.520945     0.318492     0.763398    Uiso  ? H
   N8         1.0     0.513839     0.346541     0.740650    Uiso  ? N
   H512       1.0     0.504984     0.371035     0.714520    Uiso  ? H
   H513       1.0     0.724741     0.361360     0.519748    Uiso  ? H
   N9         1.0     0.747088     0.339481     0.502674    Uiso  ? N
   H514       1.0     0.767959     0.315770     0.485719    Uiso  ? H
   C809       1.0     0.727146     0.344642     0.512712    Uiso  ? C
   C810       1.0     0.751467     0.318952     0.492760    Uiso  ? C
   C811       1.0     0.710016     0.327722     0.513452    Uiso  ? C
   C812       1.0     0.734623     0.301585     0.492202    Uiso  ? C
   H515       1.0     0.694493     0.331318     0.522749    Uiso  ? H
   H516       1.0     0.739191     0.284665     0.484427    Uiso  ? H
   C813       1.0     0.713438     0.305848     0.503203    Uiso  ? C
   C814       1.0     0.694767     0.288831     0.504271    Uiso  ? C
   H517       1.0     0.717834     0.260179     0.507831    Uiso  ? H
   H518       1.0     0.665887     0.311918     0.500768    Uiso  ? H
   C815       1.0     0.699842     0.265175     0.506097    Uiso  ? C
   C816       1.0     0.670828     0.294700     0.502853    Uiso  ? C
   C817       1.0     0.682677     0.248564     0.506881    Uiso  ? C
   C818       1.0     0.653484     0.277414     0.503340    Uiso  ? C
   H519       1.0     0.686383     0.230133     0.507943    Uiso  ? H
   N10        1.0     0.659969     0.255131     0.505169    Uiso  ? N
   H520       1.0     0.636155     0.282102     0.503103    Uiso  ? H
   H521       1.0     0.753561     0.671034     0.466916    Uiso  ? H
   N11        1.0     0.747184     0.661577     0.501314    Uiso  ? N
   H522       1.0     0.737623     0.653957     0.535482    Uiso  ? H
   C819       1.0     0.744355     0.674760     0.482711    Uiso  ? C
   C820       1.0     0.735487     0.665811     0.521088    Uiso  ? C
   C821       1.0     0.728138     0.692469     0.482576    Uiso  ? C
   C822       1.0     0.719189     0.683920     0.522242    Uiso  ? C
   H523       1.0     0.724310     0.701018     0.466567    Uiso  ? H
   H524       1.0     0.710083     0.688374     0.537659    Uiso  ? H
   C823       1.0     0.715317     0.697315     0.502472    Uiso  ? C
   C824       1.0     0.698217     0.716069     0.502968    Uiso  ? C
   H525       1.0     0.720812     0.740722     0.487603    Uiso  ? H
   H526       1.0     0.670586     0.695351     0.518125    Uiso  ? H
   C825       1.0     0.703529     0.737694     0.494571    Uiso  ? C
   C826       1.0     0.676208     0.712631     0.512649    Uiso  ? C
   C827       1.0     0.686939     0.755228     0.495724    Uiso  ? C
   C828       1.0     0.660055     0.730440     0.512606    Uiso  ? C
   H527       1.0     0.690878     0.772008     0.487997    Uiso  ? H
   N12        1.0     0.666086     0.751222     0.504880    Uiso  ? N
   H528       1.0     0.641868     0.727918     0.518049    Uiso  ? H
   H529       1.0     0.258070     0.346357     0.464160    Uiso  ? H
   N13        1.0     0.258028     0.345874     0.499900    Uiso  ? N
   H530       1.0     0.260861     0.343877     0.536913    Uiso  ? H
   C829       1.0     0.264722     0.338359     0.479337    Uiso  ? C
   C830       1.0     0.265667     0.336925     0.519847    Uiso  ? C
   C831       1.0     0.280078     0.319980     0.477673    Uiso  ? C
   C832       1.0     0.281025     0.318954     0.519455    Uiso  ? C
   H531       1.0     0.286304     0.314672     0.461182    Uiso  ? H
   H532       1.0     0.288141     0.312448     0.535041    Uiso  ? H
   C833       1.0     0.289148     0.310118     0.498095    Uiso  ? C
   C834       1.0     0.305450     0.290374     0.497443    Uiso  ? C
   H533       1.0     0.324912     0.302827     0.467974    Uiso  ? H
   H534       1.0     0.290759     0.273515     0.527050    Uiso  ? H
   C835       1.0     0.323134     0.289473     0.481105    Uiso  ? C
   C836       1.0     0.304769     0.273075     0.514440    Uiso  ? C
   C837       1.0     0.339455     0.272586     0.481634    Uiso  ? C
   C838       1.0     0.321669     0.256119     0.514778    Uiso  ? C
   H535       1.0     0.354084     0.273773     0.470175    Uiso  ? H
   N14        1.0     0.338563     0.256279     0.498516    Uiso  ? N
   H536       1.0     0.321757     0.243208     0.528570    Uiso  ? H
   H537       1.0     0.359451     0.721183     0.482354    Uiso  ? H
   N15        1.0     0.338829     0.744014     0.500739    Uiso  ? N
   H538       1.0     0.313741     0.766916     0.514158    Uiso  ? H
   C839       1.0     0.342804     0.723580     0.490284    Uiso  ? C
   C840       1.0     0.317586     0.749719     0.508464    Uiso  ? C
   C841       1.0     0.325511     0.707086     0.488483    Uiso  ? C
   C842       1.0     0.300204     0.733319     0.507891    Uiso  ? C
   H539       1.0     0.328081     0.691547     0.479253    Uiso  ? H
   H540       1.0     0.284620     0.738519     0.516608    Uiso  ? H
   C843       1.0     0.303817     0.711881     0.497599    Uiso  ? C
   C844       1.0     0.285532     0.693877     0.498428    Uiso  ? C
   H541       1.0     0.308159     0.666791     0.510230    Uiso  ? H
   H542       1.0     0.257686     0.717379     0.490838    Uiso  ? H
   C845       1.0     0.291077     0.671265     0.505153    Uiso  ? C
   C846       1.0     0.262457     0.699520     0.494070    Uiso  ? C
   C847       1.0     0.273947     0.654130     0.503432    Uiso  ? C
   C848       1.0     0.246182     0.681828     0.492888    Uiso  ? C
   H543       1.0     0.279125     0.636167     0.505448    Uiso  ? H
   N16        1.0     0.252158     0.659618     0.497460    Uiso  ? N
   H544       1.0     0.228795     0.686517     0.488483    Uiso  ? H
   H545       1.0     0.756488     0.481139     0.321301    Uiso  ? H
   N17        1.0     0.733779     0.497621     0.343683    Uiso  ? N
   H546       1.0     0.710268     0.516291     0.363071    Uiso  ? H
   C849       1.0     0.739754     0.489277     0.323355    Uiso  ? C
   C850       1.0     0.713642     0.509358     0.346241    Uiso  ? C
   C851       1.0     0.725439     0.491425     0.304648    Uiso  ? C
   C852       1.0     0.697368     0.511022     0.328085    Uiso  ? C
   H547       1.0     0.732056     0.486607     0.288018    Uiso  ? H
   H548       1.0     0.681627     0.520765     0.330483    Uiso  ? H
   C853       1.0     0.703910     0.501849     0.306767    Uiso  ? C
   C854       1.0     0.687979     0.502549     0.286632    Uiso  ? C
   H549       1.0     0.696558     0.468199     0.273398    Uiso  ? H
   H550       1.0     0.676901     0.537333     0.292328    Uiso  ? H
   C855       1.0     0.686867     0.483931     0.270860    Uiso  ? C
   C856       1.0     0.674779     0.522458     0.282035    Uiso  ? C
   C857       1.0     0.671191     0.484643     0.252791    Uiso  ? C
   C858       1.0     0.660747     0.522982     0.262356    Uiso  ? C
   H551       1.0     0.668764     0.470027     0.242650    Uiso  ? H
   N18        1.0     0.658877     0.504376     0.248800    Uiso  ? N
   H552       1.0     0.651422     0.538136     0.258380    Uiso  ? H
   H553       1.0     0.235214     0.524035     0.308635    Uiso  ? H
   N19        1.0     0.256488     0.504904     0.333206    Uiso  ? N
   H554       1.0     0.281609     0.486261     0.352790    Uiso  ? H
   C859       1.0     0.251529     0.514879     0.312344    Uiso  ? C
   C860       1.0     0.276793     0.493650     0.336064    Uiso  ? C
   C861       1.0     0.265935     0.511574     0.293829    Uiso  ? C
   C862       1.0     0.291852     0.489868     0.317487    Uiso  ? C
   H555       1.0     0.262383     0.519629     0.277919    Uiso  ? H
   H556       1.0     0.307793     0.480702     0.320109    Uiso  ? H
   C863       1.0     0.286325     0.499364     0.295890    Uiso  ? C
   C864       1.0     0.303304     0.498532     0.277223    Uiso  ? C
   H557       1.0     0.298515     0.534166     0.265264    Uiso  ? H
   H558       1.0     0.311003     0.463565     0.284198    Uiso  ? H
   C865       1.0     0.307926     0.517788     0.263131    Uiso  ? C
   C866       1.0     0.315764     0.478080     0.273287    Uiso  ? C
   C867       1.0     0.324377     0.515091     0.245951    Uiso  ? C
   C868       1.0     0.332955     0.477408     0.256550    Uiso  ? C
   H559       1.0     0.327554     0.529528     0.234518    Uiso  ? H
   N20        1.0     0.337034     0.495990     0.243297    Uiso  ? N
   H560       1.0     0.341845     0.461702     0.252994    Uiso  ? H
   H561       1.0     0.278349     0.531460     0.650076    Uiso  ? H
   N21        1.0     0.266600     0.497023     0.655444    Uiso  ? N
   H562       1.0     0.258632     0.461719     0.662537    Uiso  ? H
   C869       1.0     0.278686     0.516186     0.661017    Uiso  ? C
   C870       1.0     0.268458     0.476962     0.667193    Uiso  ? C
   C871       1.0     0.292890     0.515999     0.680058    Uiso  ? C
   C872       1.0     0.282342     0.476495     0.686849    Uiso  ? C
   H563       1.0     0.302065     0.531657     0.684582    Uiso  ? H
   H564       1.0     0.283522     0.460691     0.697286    Uiso  ? H
   C873       1.0     0.295175     0.496302     0.693190    Uiso  ? C
   C874       1.0     0.310273     0.496269     0.713904    Uiso  ? C
   H565       1.0     0.304156     0.531887     0.724654    Uiso  ? H
   H566       1.0     0.321216     0.460835     0.708833    Uiso  ? H
   C875       1.0     0.312127     0.515500     0.728531    Uiso  ? C
   C876       1.0     0.321843     0.476186     0.719536    Uiso  ? C
   C877       1.0     0.326892     0.514367     0.747029    Uiso  ? C
   C878       1.0     0.335827     0.476236     0.738746    Uiso  ? C
   H567       1.0     0.329345     0.529233     0.757237    Uiso  ? H
   N22        1.0     0.338731     0.495479     0.751423    Uiso  ? N
   H568       1.0     0.346602     0.461141     0.743491    Uiso  ? H
   H569       1.0     0.712318     0.518922     0.633545    Uiso  ? H
   N23        1.0     0.739651     0.505515     0.654401    Uiso  ? N
   H570       1.0     0.763905     0.492454     0.677421    Uiso  ? H
   C879       1.0     0.718480     0.513782     0.651064    Uiso  ? C
   C880       1.0     0.746932     0.498951     0.675385    Uiso  ? C
   C881       1.0     0.703254     0.516521     0.669548    Uiso  ? C
   C882       1.0     0.732198     0.500974     0.694457    Uiso  ? C
   H571       1.0     0.686525     0.525246     0.666085    Uiso  ? H
   H572       1.0     0.739126     0.495853     0.710756    Uiso  ? H
   C883       1.0     0.710199     0.510361     0.692033    Uiso  ? C
   C884       1.0     0.694306     0.510928     0.711938    Uiso  ? C
   H573       1.0     0.705493     0.479374     0.727291    Uiso  ? H
   H574       1.0     0.675839     0.541164     0.701387    Uiso  ? H
   C885       1.0     0.694724     0.493861     0.728991    Uiso  ? C
   C886       1.0     0.677119     0.527945     0.713580    Uiso  ? C
   C887       1.0     0.679423     0.494729     0.747487    Uiso  ? C
   C888       1.0     0.663161     0.528689     0.732652    Uiso  ? C
   H575       1.0     0.679799     0.481325     0.760653    Uiso  ? H
   N24        1.0     0.663900     0.511468     0.748606    Uiso  ? N
   H576       1.0     0.650851     0.542687     0.734143    Uiso  ? H
   H577       1.0     0.709326     0.776124     0.106796    Uiso  ? H
   N25        1.0     0.733708     0.751297     0.893371    Uiso  ? N
   H578       1.0     0.754138     0.725016     0.878466    Uiso  ? H
   C889       1.0     0.712853     0.758767     0.100710    Uiso  ? C
   C890       1.0     0.737309     0.730174     0.884005    Uiso  ? C
   C891       1.0     0.694549     0.742959     0.100000    Uiso  ? C
   C892       1.0     0.719735     0.714245     0.882943    Uiso  ? C
   H579       1.0     0.678157     0.748374     0.104859    Uiso  ? H
   H580       1.0     0.723025     0.697770     0.875755    Uiso  ? H
   C893       1.0     0.697963     0.719627     0.891523    Uiso  ? C
   C894       1.0     0.679303     0.702419     0.890468    Uiso  ? C
   H581       1.0     0.687545     0.688483     0.857406    Uiso  ? H
   H582       1.0     0.663931     0.714025     0.122012    Uiso  ? H
   C895       1.0     0.676769     0.686953     0.872207    Uiso  ? C
   C896       1.0     0.663317     0.702381     0.107587    Uiso  ? C
   C897       1.0     0.659050     0.670445     0.872332    Uiso  ? C
   C898       1.0     0.646222     0.685903     0.107378    Uiso  ? C
   H583       1.0     0.658238     0.658031     0.859487    Uiso  ? H
   N26        1.0     0.644596     0.669610     0.890588    Uiso  ? N
   H584       1.0     0.633794     0.685548     0.120550    Uiso  ? H
   H585       1.0     0.733278     0.246244     0.133691    Uiso  ? H
   N27        1.0     0.747366     0.260787     0.103923    Uiso  ? N
   H586       1.0     0.759537     0.275351     0.873662    Uiso  ? H
   C899       1.0     0.732761     0.260914     0.121842    Uiso  ? C
   C900       1.0     0.746309     0.275982     0.887615    Uiso  ? C
   C901       1.0     0.715176     0.277150     0.123432    Uiso  ? C
   C902       1.0     0.728481     0.291777     0.888287    Uiso  ? C
   H587       1.0     0.702203     0.275038     0.137073    Uiso  ? H
   H588       1.0     0.727957     0.303290     0.874173    Uiso  ? H
   C903       1.0     0.712438     0.292885     0.105663    Uiso  ? C
   C904       1.0     0.693149     0.308614     0.104227    Uiso  ? C
   H589       1.0     0.691163     0.316435     0.139997    Uiso  ? H
   H590       1.0     0.688109     0.303232     0.868802    Uiso  ? H
   C905       1.0     0.684441     0.320627     0.123340    Uiso  ? C
   C906       1.0     0.682574     0.312870     0.883672    Uiso  ? C
   C907       1.0     0.667070     0.336858     0.121229    Uiso  ? C
   C908       1.0     0.665008     0.329810     0.882041    Uiso  ? C
   H591       1.0     0.661066     0.345757     0.135517    Uiso  ? H
   N28        1.0     0.657960     0.341794     0.100995    Uiso  ? N
   H592       1.0     0.656559     0.333444     0.866365    Uiso  ? H
   H593       1.0     0.227286     0.713974     0.876966    Uiso  ? H
   N29        1.0     0.246463     0.736963     0.898331    Uiso  ? N
   H594       1.0     0.268226     0.757775     0.117452    Uiso  ? H
   C909       1.0     0.243757     0.718182     0.884515    Uiso  ? C
   C910       1.0     0.267252     0.742544     0.107054    Uiso  ? C
   C911       1.0     0.262081     0.702562     0.880415    Uiso  ? C
   C912       1.0     0.285457     0.728181     0.103645    Uiso  ? C
   H595       1.0     0.259606     0.687020     0.870955    Uiso  ? H
   H596       1.0     0.301432     0.732307     0.112121    Uiso  ? H
   C913       1.0     0.283167     0.706835     0.891089    Uiso  ? C
   C914       1.0     0.303091     0.690753     0.887522    Uiso  ? C
   H597       1.0     0.330426     0.716808     0.887546    Uiso  ? H
   H598       1.0     0.282273     0.659839     0.887411    Uiso  ? H
   C915       1.0     0.326362     0.698693     0.888673    Uiso  ? C
   C916       1.0     0.299245     0.667261     0.887138    Uiso  ? C
   C917       1.0     0.343794     0.682662     0.889070    Uiso  ? C
   C918       1.0     0.317679     0.651697     0.886924    Uiso  ? C
   H599       1.0     0.361763     0.689063     0.889900    Uiso  ? H
   N30        1.0     0.339405     0.659942     0.888432    Uiso  ? N
   H600       1.0     0.315270     0.632959     0.886376    Uiso  ? H
   H601       1.0     0.256272     0.263730     0.869261    Uiso  ? H
   N31        1.0     0.262503     0.250747     0.102071    Uiso  ? N
   H602       1.0     0.272008     0.240286     0.135620    Uiso  ? H
   C919       1.0     0.267356     0.263630     0.884554    Uiso  ? C
   C920       1.0     0.275354     0.251755     0.121798    Uiso  ? C
   C921       1.0     0.285122     0.279616     0.885481    Uiso  ? C
   C922       1.0     0.294086     0.266431     0.123007    Uiso  ? C
   H603       1.0     0.287681     0.291269     0.871088    Uiso  ? H
   H604       1.0     0.305105     0.265005     0.138230    Uiso  ? H
   C923       1.0     0.298663     0.281933     0.104652    Uiso  ? C
   C924       1.0     0.319153     0.297133     0.104993    Uiso  ? C
   H605       1.0     0.327037     0.292223     0.869531    Uiso  ? H
   H606       1.0     0.317725     0.304001     0.141722    Uiso  ? H
   C925       1.0     0.331242     0.300888     0.885628    Uiso  ? C
   C926       1.0     0.325910     0.308508     0.125234    Uiso  ? C
   C927       1.0     0.348309     0.318086     0.885306    Uiso  ? C
   C928       1.0     0.343391     0.324976     0.124370    Uiso  ? C
   H607       1.0     0.357726     0.320781     0.870495    Uiso  ? H
   N32        1.0     0.353804     0.329731     0.104245    Uiso  ? N
   H608       1.0     0.348659     0.333971     0.139733    Uiso  ? H
   H609       1.0     0.735534     0.146181     0.743781    Uiso  ? H
   N33        1.0     0.743691     0.110047     0.740678    Uiso  ? N
   H610       1.0     0.743746     0.869510     0.739532    Uiso  ? H
   C929       1.0     0.730503     0.129463     0.736747    Uiso  ? C
   C930       1.0     0.735544     0.885298     0.733690    Uiso  ? C
   C931       1.0     0.710915     0.127735     0.722360    Uiso  ? C
   C932       1.0     0.716888     0.883643     0.718344    Uiso  ? C
   H611       1.0     0.699971     0.142900     0.719233    Uiso  ? H
   H612       1.0     0.713310     0.867123     0.710440    Uiso  ? H
   C933       1.0     0.705469     0.106793     0.711957    Uiso  ? C
   C934       1.0     0.686342     0.105899     0.694773    Uiso  ? C
   H613       1.0     0.671694     0.870596     0.708608    Uiso  ? H
   H614       1.0     0.696423     0.136864     0.677746    Uiso  ? H
   C935       1.0     0.669500     0.883895     0.695681    Uiso  ? C
   C936       1.0     0.683986     0.122834     0.677933    Uiso  ? C
   C937       1.0     0.652105     0.883034     0.679585    Uiso  ? C
   C938       1.0     0.665394     0.122613     0.663012    Uiso  ? C
   H615       1.0     0.640691     0.867861     0.678413    Uiso  ? H
   N34        1.0     0.650983     0.104163     0.663573    Uiso  ? N
   H616       1.0     0.662987     0.135389     0.650476    Uiso  ? H
   H617       1.0     0.284471     0.896297     0.768476    Uiso  ? H
   N35        1.0     0.257484     0.891658     0.744226    Uiso  ? N
   H618       1.0     0.233442     0.887891     0.717073    Uiso  ? H
   C939       1.0     0.280002     0.893930     0.750474    Uiso  ? C
   C940       1.0     0.251072     0.891379     0.722043    Uiso  ? C
   C941       1.0     0.296752     0.897361     0.734117    Uiso  ? C
   C942       1.0     0.267731     0.891459     0.705381    Uiso  ? C
   H619       1.0     0.315546     0.103298     0.739890    Uiso  ? H
   H620       1.0     0.261788     0.888642     0.688458    Uiso  ? H
   C943       1.0     0.291368     0.895186     0.710392    Uiso  ? C
   C944       1.0     0.310010     0.895692     0.692857    Uiso  ? C
   H621       1.0     0.331411     0.127016     0.708863    Uiso  ? H
   H622       1.0     0.295438     0.868371     0.671775    Uiso  ? H
   C945       1.0     0.330165     0.113880     0.694535    Uiso  ? C
   C946       1.0     0.309003     0.880725     0.673536    Uiso  ? C
   C947       1.0     0.347923     0.113208     0.678087    Uiso  ? C
   C948       1.0     0.327379     0.880004     0.657903    Uiso  ? C
   H623       1.0     0.362252     0.125106     0.678466    Uiso  ? H
   N36        1.0     0.345552     0.895031     0.659644    Uiso  ? N
   H624       1.0     0.327497     0.867643     0.644602    Uiso  ? H
   H625       1.0     0.255656     0.857442     0.265481    Uiso  ? H
   N37        1.0     0.255775     0.893894     0.260251    Uiso  ? N
   H626       1.0     0.258742     0.134124     0.260060    Uiso  ? H
   C949       1.0     0.263749     0.873905     0.269394    Uiso  ? C
   C950       1.0     0.265424     0.118075     0.266829    Uiso  ? C
   C951       1.0     0.282306     0.874276     0.284666    Uiso  ? C
   C952       1.0     0.284020     0.118846     0.281999    Uiso  ? C
   H627       1.0     0.287596     0.857919     0.292798    Uiso  ? H
   H628       1.0     0.290308     0.136116     0.286603    Uiso  ? H
   C953       1.0     0.292758     0.895227     0.290599    Uiso  ? C
   C954       1.0     0.312209     0.896646     0.307398    Uiso  ? C
   H629       1.0     0.333363     0.871605     0.290880    Uiso  ? H
   H630       1.0     0.297815     0.128991     0.326621    Uiso  ? H
   C955       1.0     0.331455     0.882123     0.306190    Uiso  ? C
   C956       1.0     0.311762     0.116242     0.325431    Uiso  ? C
   C957       1.0     0.348515     0.883142     0.323439    Uiso  ? C
   C958       1.0     0.329180     0.116318     0.342321    Uiso  ? C
   H631       1.0     0.363563     0.872080     0.323187    Uiso  ? H
   N38        1.0     0.346088     0.898015     0.341089    Uiso  ? N
   H632       1.0     0.327617     0.128081     0.356977    Uiso  ? H
   H633       1.0     0.756023     0.132347     0.276515    Uiso  ? H
   N39        1.0     0.737095     0.111196     0.254608    Uiso  ? N
   H634       1.0     0.713678     0.888692     0.234275    Uiso  ? H
   C959       1.0     0.739595     0.123669     0.273832    Uiso  ? C
   C960       1.0     0.716013     0.897176     0.249803    Uiso  ? C
   C961       1.0     0.723013     0.123285     0.290961    Uiso  ? C
   C962       1.0     0.698380     0.896615     0.265792    Uiso  ? C
   H635       1.0     0.726223     0.131081     0.306842    Uiso  ? H
   H636       1.0     0.682324     0.888047     0.262448    Uiso  ? H
   C963       1.0     0.702549     0.111400     0.286955    Uiso  ? C
   C964       1.0     0.684489     0.110639     0.304850    Uiso  ? C
   H637       1.0     0.680150     0.147618     0.310097    Uiso  ? H
   H638       1.0     0.680071     0.869563     0.304360    Uiso  ? H
   C965       1.0     0.675009     0.130635     0.314593    Uiso  ? C
   C966       1.0     0.674074     0.885974     0.311400    Uiso  ? C
   C967       1.0     0.658094     0.129039     0.332026    Uiso  ? C
   C968       1.0     0.656523     0.884786     0.328261    Uiso  ? C
   H639       1.0     0.651470     0.144199     0.339370    Uiso  ? H
   N40        1.0     0.649420     0.108481     0.338224    Uiso  ? N
   H640       1.0     0.649434     0.868818     0.334793    Uiso  ? H
   H641       1.0     0.867706     0.270106     0.752522    Uiso  ? H
   N41        1.0     0.106504     0.263768     0.746617    Uiso  ? N
   H642       1.0     0.140649     0.257931     0.736569    Uiso  ? H
   C969       1.0     0.883173     0.274621     0.742339    Uiso  ? C
   C970       1.0     0.125433     0.267899     0.732903    Uiso  ? C
   C971       1.0     0.881800     0.291240     0.725131    Uiso  ? C
   C972       1.0     0.124970     0.284141     0.715439    Uiso  ? C
   H643       1.0     0.865558     0.299990     0.723731    Uiso  ? H
   H644       1.0     0.139904     0.286902     0.704106    Uiso  ? H
   C973       1.0     0.104373     0.296442     0.711469    Uiso  ? C
   C974       1.0     0.102359     0.313613     0.693013    Uiso  ? C
   H645       1.0     0.881565     0.338073     0.714551    Uiso  ? H
   H646       1.0     0.119526     0.292734     0.666858    Uiso  ? H
   C975       1.0     0.888391     0.334978     0.697444    Uiso  ? C
   C976       1.0     0.111554     0.308957     0.671456    Uiso  ? C
   C977       1.0     0.888081     0.351710     0.680019    Uiso  ? C
   C978       1.0     0.111934     0.326448     0.655125    Uiso  ? C
   H647       1.0     0.880911     0.368389     0.683026    Uiso  ? H
   N42        1.0     0.898321     0.347160     0.659826    Uiso  ? N
   H648       1.0     0.119739     0.323353     0.638570    Uiso  ? H
   H649       1.0     0.867631     0.754888     0.717697    Uiso  ? H
   N43        1.0     0.894063     0.740202     0.738279    Uiso  ? N
   H650       1.0     0.122170     0.722068     0.757824    Uiso  ? H
   C979       1.0     0.880424     0.741165     0.719716    Uiso  ? C
   C980       1.0     0.112311     0.722914     0.741970    Uiso  ? C
   C981       1.0     0.881764     0.724189     0.702996    Uiso  ? C
   C982       1.0     0.113768     0.704989     0.726212    Uiso  ? C
   H651       1.0     0.869957     0.725535     0.688714    Uiso  ? H
   H652       1.0     0.124525     0.689906     0.730118    Uiso  ? H
   C983       1.0     0.897335     0.706187     0.706060    Uiso  ? C
   C984       1.0     0.897313     0.686944     0.688765    Uiso  ? C
   H653       1.0     0.103345     0.659392     0.713647    Uiso  ? H
   H654       1.0     0.894168     0.710215     0.659860    Uiso  ? H
   C985       1.0     0.103246     0.664180     0.695111    Uiso  ? C
   C986       1.0     0.895705     0.692700     0.665217    Uiso  ? C
   C987       1.0     0.104575     0.647358     0.677854    Uiso  ? C
   C988       1.0     0.895727     0.674846     0.649220    Uiso  ? C
   H655       1.0     0.107011     0.629607     0.682306    Uiso  ? H
   N44        1.0     0.102525     0.652893     0.655551    Uiso  ? N
   H656       1.0     0.894533     0.679234     0.631029    Uiso  ? H
   H657       1.0     0.117852     0.759716     0.278118    Uiso  ? H
   N45        1.0     0.888611     0.742420     0.258856    Uiso  ? N
   H658       1.0     0.864987     0.721161     0.242343    Uiso  ? H
   C989       1.0     0.106987     0.744960     0.276847    Uiso  ? C
   C990       1.0     0.876717     0.723013     0.256077    Uiso  ? C
   C991       1.0     0.109615     0.727826     0.293335    Uiso  ? C
   C992       1.0     0.878487     0.705586     0.272315    Uiso  ? C
   H659       1.0     0.120274     0.731628     0.307839    Uiso  ? H
   H660       1.0     0.867905     0.690715     0.271575    Uiso  ? H
   C993       1.0     0.893655     0.707204     0.291038    Uiso  ? C
   C994       1.0     0.895180     0.688109     0.307410    Uiso  ? C
   H661       1.0     0.897760     0.710043     0.338344    Uiso  ? H
   H662       1.0     0.893826     0.661291     0.281574    Uiso  ? H
   C995       1.0     0.897062     0.692642     0.331447    Uiso  ? C
   C996       1.0     0.895043     0.665129     0.299871    Uiso  ? C
   C997       1.0     0.896100     0.674391     0.346783    Uiso  ? C
   C998       1.0     0.895132     0.647430     0.316316    Uiso  ? C
   H663       1.0     0.896268     0.677469     0.365152    Uiso  ? H
   N46        1.0     0.894679     0.652644     0.338711    Uiso  ? N
   H664       1.0     0.892346     0.629338     0.311527    Uiso  ? H
   H665       1.0     0.133009     0.272550     0.241774    Uiso  ? H
   N47        1.0     0.103551     0.257942     0.255452    Uiso  ? N
   H666       1.0     0.870463     0.245189     0.271940    Uiso  ? H
   C999       1.0     0.119853     0.274325     0.254374    Uiso  ? C
   C1000      1.0     0.883764     0.258416     0.271838    Uiso  ? C
   C1001      1.0     0.119632     0.293192     0.269535    Uiso  ? C
   C1002      1.0     0.883016     0.276493     0.287176    Uiso  ? C
   H667       1.0     0.132255     0.306806     0.268488    Uiso  ? H
   H668       1.0     0.869298     0.278036     0.299580    Uiso  ? H
   C1003      1.0     0.102019     0.294287     0.285898    Uiso  ? C
   C1004      1.0     0.898378     0.313380     0.303401    Uiso  ? C
   H669       1.0     0.892874     0.290653     0.331391    Uiso  ? H
   H670       1.0     0.105692     0.341446     0.279636    Uiso  ? H
   C1005      1.0     0.895974     0.307979     0.326680    Uiso  ? C
   C1006      1.0     0.104422     0.336889     0.297015    Uiso  ? C
   C1007      1.0     0.896432     0.325468     0.343115    Uiso  ? C
   C1008      1.0     0.103758     0.354179     0.314413    Uiso  ? C
   H671       1.0     0.894413     0.321852     0.361273    Uiso  ? H
   N48        1.0     0.102039     0.347689     0.336543    Uiso  ? N
   H672       1.0     0.105005     0.372311     0.309247    Uiso  ? H
