
#======================================================================
# CRYSTAL DATA
#----------------------------------------------------------------------
data_VESTA_phase_1

_chemical_name_common                  ' Atoms. Timestep: 0'
_cell_length_a                         46.562012
_cell_length_b                         46.562012
_cell_length_c                         46.562012
_cell_angle_alpha                      90.000000
_cell_angle_beta                       90.000000
_cell_angle_gamma                      90.000000
_cell_volume                           1.000000
_space_group_name_H-M_alt              'P 1'
_space_group_IT_number                 1

loop_
_space_group_symop_operation_xyz
   'x, y, z'

loop_
   _atom_site_label
   _atom_site_occupancy
   _atom_site_fract_x
   _atom_site_fract_y
   _atom_site_fract_z
   _atom_site_adp_type
   _atom_site_U_iso_or_equiv
   _atom_site_type_symbol
   C1         1.0     0.119916     0.300601     0.812347    Uiso  ? C
   C2         1.0     0.116217     0.294888     0.781616    Uiso  ? C
   C3         1.0     0.129895     0.312325     0.761370    Uiso  ? C
   H1         1.0     0.142779     0.330357     0.768728    Uiso  ? H
   C4         1.0     0.126103     0.307303     0.731642    Uiso  ? C
   H2         1.0     0.136141     0.320112     0.715702    Uiso  ? H
   C5         1.0     0.109096     0.283909     0.722637    Uiso  ? C
   H3         1.0     0.106408     0.280112     0.699633    Uiso  ? H
   C6         1.0     0.891524     0.264814     0.742193    Uiso  ? C
   C7         1.0     0.896689     0.269966     0.771988    Uiso  ? C
   H4         1.0     0.887132     0.255495     0.787552    Uiso  ? H
   C8         1.0     0.870589     0.242253     0.733306    Uiso  ? C
   C9         1.0     0.868896     0.320181     0.888233    Uiso  ? C
   C10        1.0     0.839254     0.326544     0.895638    Uiso  ? C
   C11        1.0     0.828497     0.354874     0.895984    Uiso  ? C
   H5         1.0     0.842207     0.372694     0.893007    Uiso  ? H
   C12        1.0     0.799424     0.361758     0.102263    Uiso  ? C
   H6         1.0     0.791692     0.383282     0.103632    Uiso  ? H
   C13        1.0     0.780494     0.338651     0.106118    Uiso  ? C
   H7         1.0     0.758680     0.342476     0.113421    Uiso  ? H
   C14        1.0     0.790758     0.310450     0.106146    Uiso  ? C
   C15        1.0     0.820020     0.304819     0.101306    Uiso  ? C
   H8         1.0     0.827455     0.281733     0.899918    Uiso  ? H
   C16        1.0     0.771199     0.284918     0.108252    Uiso  ? C
   C17        1.0     0.131818     0.312106     0.123941    Uiso  ? C
   C18        1.0     0.139323     0.312537     0.154530    Uiso  ? C
   C19        1.0     0.154878     0.335655     0.165564    Uiso  ? C
   H9         1.0     0.159356     0.353092     0.151098    Uiso  ? H
   C20        1.0     0.165623     0.335468     0.192848    Uiso  ? C
   H10        1.0     0.177137     0.353856     0.199846    Uiso  ? H
   C21        1.0     0.162321     0.311120     0.209626    Uiso  ? C
   H11        1.0     0.170229     0.312011     0.231573    Uiso  ? H
   C22        1.0     0.146755     0.287053     0.199983    Uiso  ? C
   C23        1.0     0.134451     0.288294     0.172349    Uiso  ? C
   H12        1.0     0.123195     0.270258     0.163616    Uiso  ? H
   C24        1.0     0.145756     0.260995     0.217005    Uiso  ? C
   C25        1.0     0.181274     0.297927     0.878663    Uiso  ? C
   C26        1.0     0.211386     0.293036     0.886642    Uiso  ? C
   C27        1.0     0.226759     0.316261     0.100365    Uiso  ? C
   H13        1.0     0.216446     0.336026     0.105783    Uiso  ? H
   C28        1.0     0.256554     0.312954     0.105981    Uiso  ? C
   H14        1.0     0.268424     0.330249     0.115441    Uiso  ? H
   C29        1.0     0.270043     0.287021     0.100150    Uiso  ? C
   H15        1.0     0.292667     0.284736     0.106002    Uiso  ? H
   C30        1.0     0.254421     0.262771     0.888772    Uiso  ? C
   C31        1.0     0.225191     0.266291     0.881921    Uiso  ? C
   H16        1.0     0.212428     0.249001     0.872389    Uiso  ? H
   C32        1.0     0.267651     0.233643     0.887548    Uiso  ? C
   C33        1.0     0.826338     0.150587     0.695947    Uiso  ? C
   C34        1.0     0.819618     0.123370     0.680370    Uiso  ? C
   C35        1.0     0.808770     0.123922     0.651881    Uiso  ? C
   H17        1.0     0.804591     0.144705     0.641515    Uiso  ? H
   C36        1.0     0.802458     0.892824     0.637791    Uiso  ? C
   H18        1.0     0.793681     0.893940     0.615569    Uiso  ? H
   C37        1.0     0.807243     0.866139     0.651439    Uiso  ? C
   H19        1.0     0.800611     0.846266     0.640772    Uiso  ? H
   C38        1.0     0.817213     0.865615     0.679801    Uiso  ? C
   C39        1.0     0.823812     0.891239     0.693639    Uiso  ? C
   H20        1.0     0.829918     0.891043     0.716318    Uiso  ? H
   C40        1.0     0.821134     0.837543     0.695932    Uiso  ? C
   C41        1.0     0.789774     0.217032     0.752032    Uiso  ? C
   C42        1.0     0.766946     0.229886     0.768882    Uiso  ? C
   C43        1.0     0.748156     0.249308     0.756226    Uiso  ? C
   H21        1.0     0.749855     0.255358     0.733974    Uiso  ? H
   C44        1.0     0.729240     0.264533     0.773298    Uiso  ? C
   H22        1.0     0.715250     0.281568     0.765206    Uiso  ? H
   C45        1.0     0.727371     0.259402     0.802775    Uiso  ? C
   H23        1.0     0.712458     0.270847     0.815418    Uiso  ? H
   C46        1.0     0.746193     0.240047     0.815545    Uiso  ? C
   C47        1.0     0.765179     0.225389     0.798207    Uiso  ? C
   H24        1.0     0.780664     0.210396     0.808780    Uiso  ? H
   C48        1.0     0.746161     0.235434     0.846998    Uiso  ? C
   C49        1.0     0.883640     0.184830     0.697382    Uiso  ? C
   C50        1.0     0.118594     0.178512     0.686442    Uiso  ? C
   C51        1.0     0.129074     0.191881     0.661613    Uiso  ? C
   H25        1.0     0.116552     0.206389     0.649635    Uiso  ? H
   C52        1.0     0.157383     0.186147     0.652111    Uiso  ? C
   H26        1.0     0.165790     0.199091     0.634423    Uiso  ? H
   C53        1.0     0.175329     0.167474     0.666791    Uiso  ? C
   H27        1.0     0.196814     0.164977     0.659070    Uiso  ? H
   C54        1.0     0.164420     0.153884     0.691545    Uiso  ? C
   C55        1.0     0.136264     0.159193     0.700855    Uiso  ? C
   H28        1.0     0.128711     0.148596     0.718848    Uiso  ? H
   C56        1.0     0.183653     0.133190     0.708082    Uiso  ? C
   C57        1.0     0.711034     0.192418     0.887187    Uiso  ? C
   C58        1.0     0.689969     0.168338     0.883087    Uiso  ? C
   C59        1.0     0.660746     0.173577     0.877486    Uiso  ? C
   H29        1.0     0.652793     0.195367     0.875033    Uiso  ? H
   C60        1.0     0.641720     0.150580     0.875590    Uiso  ? C
   H30        1.0     0.619414     0.155170     0.871009    Uiso  ? H
   C61        1.0     0.651492     0.122690     0.876721    Uiso  ? C
   H31        1.0     0.636660     0.104820     0.872673    Uiso  ? H
   C62        1.0     0.680732     0.116664     0.882544    Uiso  ? C
   C63        1.0     0.699447     0.139886     0.886171    Uiso  ? C
   H32        1.0     0.721278     0.136593     0.892603    Uiso  ? H
   C64        1.0     0.690268     0.881776     0.884887    Uiso  ? C
   C65        1.0     0.732766     0.210252     0.153702    Uiso  ? C
   C66        1.0     0.725219     0.197136     0.181103    Uiso  ? C
   C67        1.0     0.700070     0.205429     0.195707    Uiso  ? C
   H33        1.0     0.687807     0.222876     0.188005    Uiso  ? H
   C68        1.0     0.691415     0.191232     0.219883    Uiso  ? C
   H34        1.0     0.671966     0.196952     0.231242    Uiso  ? H
   C69        1.0     0.707537     0.168413     0.230315    Uiso  ? C
   H35        1.0     0.699823     0.156264     0.248862    Uiso  ? H
   C70        1.0     0.732738     0.159432     0.216327    Uiso  ? C
   C71        1.0     0.741106     0.173730     0.191165    Uiso  ? C
   H36        1.0     0.758648     0.165888     0.178238    Uiso  ? H
   C72        1.0     0.749406     0.135004     0.226739    Uiso  ? C
   C73        1.0     0.177889     0.855284     0.712497    Uiso  ? C
   C74        1.0     0.157504     0.834512     0.699341    Uiso  ? C
   C75        1.0     0.165455     0.819294     0.674814    Uiso  ? C
   H37        1.0     0.186198     0.823001     0.664454    Uiso  ? H
   C76        1.0     0.146671     0.800472     0.661172    Uiso  ? C
   H38        1.0     0.153912     0.789836     0.642777    Uiso  ? H
   C77        1.0     0.119481     0.795553     0.671595    Uiso  ? C
   H39        1.0     0.105919     0.780616     0.660539    Uiso  ? H
   C78        1.0     0.110802     0.810413     0.696628    Uiso  ? C
   C79        1.0     0.129665     0.829525     0.710678    Uiso  ? C
   H40        1.0     0.122821     0.841030     0.729578    Uiso  ? H
   C80        1.0     0.877496     0.803133     0.709501    Uiso  ? C
   C81        1.0     0.254458     0.130391     0.755586    Uiso  ? C
   C82        1.0     0.275589     0.151390     0.767031    Uiso  ? C
   C83        1.0     0.301019     0.158351     0.752176    Uiso  ? C
   H41        1.0     0.304576     0.149263     0.731034    Uiso  ? H
   C84        1.0     0.320464     0.178750     0.763193    Uiso  ? C
   H42        1.0     0.339317     0.185210     0.751046    Uiso  ? H
   C85        1.0     0.315480     0.190693     0.790671    Uiso  ? C
   H43        1.0     0.331213     0.204028     0.800305    Uiso  ? H
   C86        1.0     0.291050     0.182317     0.806467    Uiso  ? C
   C87        1.0     0.270585     0.163779     0.793690    Uiso  ? C
   H44        1.0     0.252832     0.156413     0.806495    Uiso  ? H
   C88        1.0     0.290090     0.187294     0.838454    Uiso  ? C
   C89        1.0     0.275174     0.201994     0.145997    Uiso  ? C
   C90        1.0     0.265954     0.214857     0.173397    Uiso  ? C
   C91        1.0     0.285030     0.231652     0.189584    Uiso  ? C
   H45        1.0     0.307041     0.234850     0.181655    Uiso  ? H
   C92        1.0     0.276686     0.242768     0.216022    Uiso  ? C
   H46        1.0     0.290715     0.256251     0.229374    Uiso  ? H
   C93        1.0     0.248992     0.237833     0.227136    Uiso  ? C
   H47        1.0     0.243221     0.247849     0.247060    Uiso  ? H
   C94        1.0     0.229760     0.220439     0.211726    Uiso  ? C
   C95        1.0     0.237837     0.209915     0.184168    Uiso  ? C
   H48        1.0     0.222427     0.197205     0.171234    Uiso  ? H
   C96        1.0     0.200319     0.215462     0.223210    Uiso  ? C
   O1         1.0     0.105626     0.285565     0.830699    Uiso  ? O
   O2         1.0     0.136498     0.320101     0.822181    Uiso  ? O
   O3         1.0     0.880975     0.296372     0.894057    Uiso  ? O
   O4         1.0     0.883415     0.339390     0.874857    Uiso  ? O
   O5         1.0     0.115155     0.292871     0.113980    Uiso  ? O
   O6         1.0     0.144517     0.329012     0.105719    Uiso  ? O
   O7         1.0     0.165571     0.276463     0.871520    Uiso  ? O
   O8         1.0     0.169090     0.323177     0.883085    Uiso  ? O
   O9         1.0     0.840246     0.150683     0.719636    Uiso  ? O
   O10        1.0     0.815585     0.174206     0.685969    Uiso  ? O
   O11        1.0     0.802907     0.194976     0.761713    Uiso  ? O
   O12        1.0     0.799492     0.229553     0.729902    Uiso  ? O
   O13        1.0     0.863802     0.223231     0.751780    Uiso  ? O
   O14        1.0     0.864358     0.238473     0.707017    Uiso  ? O
   O15        1.0     0.872818     0.169372     0.717370    Uiso  ? O
   O16        1.0     0.870700     0.207974     0.688783    Uiso  ? O
   O17        1.0     0.733797     0.189263     0.101850    Uiso  ? O
   O18        1.0     0.704810     0.218089     0.880903    Uiso  ? O
   O19        1.0     0.744969     0.195622     0.133799    Uiso  ? O
   O20        1.0     0.724493     0.235986     0.148174    Uiso  ? O
   O21        1.0     0.780709     0.260125     0.114247    Uiso  ? O
   O22        1.0     0.745072     0.287951     0.102951    Uiso  ? O
   O23        1.0     0.766497     0.221418     0.859267    Uiso  ? O
   O24        1.0     0.726132     0.245861     0.862454    Uiso  ? O
   O25        1.0     0.169163     0.876259     0.727739    Uiso  ? O
   O26        1.0     0.204834     0.852512     0.708178    Uiso  ? O
   O27        1.0     0.172297     0.116378     0.726356    Uiso  ? O
   O28        1.0     0.209797     0.130486     0.701143    Uiso  ? O
   O29        1.0     0.227678     0.132472     0.761823    Uiso  ? O
   O30        1.0     0.262177     0.110565     0.737855    Uiso  ? O
   O31        1.0     0.219958     0.855733     0.767304    Uiso  ? O
   O32        1.0     0.257647     0.867754     0.740284    Uiso  ? O
   O33        1.0     0.265677     0.187740     0.851342    Uiso  ? O
   O34        1.0     0.312902     0.188292     0.852921    Uiso  ? O
   O35        1.0     0.254748     0.212243     0.876354    Uiso  ? O
   O36        1.0     0.291724     0.229113     0.900000    Uiso  ? O
   O37        1.0     0.258723     0.184764     0.133758    Uiso  ? O
   O38        1.0     0.296505     0.212415     0.132030    Uiso  ? O
   O39        1.0     0.288696     0.134392     0.888566    Uiso  ? O
   O40        1.0     0.327116     0.154171     0.110980    Uiso  ? O
   O41        1.0     0.846140     0.770804     0.767388    Uiso  ? O
   O42        1.0     0.854458     0.752121     0.725031    Uiso  ? O
   O43        1.0     0.787362     0.807413     0.755850    Uiso  ? O
   O44        1.0     0.783810     0.769053     0.729273    Uiso  ? O
   O45        1.0     0.834955     0.837686     0.720014    Uiso  ? O
   O46        1.0     0.811856     0.813536     0.687009    Uiso  ? O
   O47        1.0     0.865129     0.820344     0.727464    Uiso  ? O
   O48        1.0     0.865668     0.779057     0.704036    Uiso  ? O
   O49        1.0     0.113268     0.230088     0.871402    Uiso  ? O
   O50        1.0     0.857980     0.164728     0.789648    Uiso  ? O
   O51        1.0     0.811090     0.200201     0.111353    Uiso  ? O
   O52        1.0     0.179203     0.894709     0.799293    Uiso  ? O
   O53        1.0     0.222475     0.145720     0.890731    Uiso  ? O
   O54        1.0     0.836282     0.831082     0.794130    Uiso  ? O
   Zn1        1.0     0.119303     0.275219     0.872188    Uiso  ? Zn
   Zn2        1.0     0.131856     0.339128     0.862351    Uiso  ? Zn
   Zn3        1.0     0.844271     0.183750     0.751132    Uiso  ? Zn
   Zn4        1.0     0.826080     0.216599     0.697666    Uiso  ? Zn
   Zn5        1.0     0.770761     0.218353     0.102746    Uiso  ? Zn
   Zn6        1.0     0.717279     0.256081     0.107036    Uiso  ? Zn
   Zn7        1.0     0.197145     0.893142     0.759576    Uiso  ? Zn
   Zn8        1.0     0.233451     0.887046     0.706737    Uiso  ? Zn
   Zn9        1.0     0.260830     0.168596     0.891227    Uiso  ? Zn
   Zn10       1.0     0.320984     0.193573     0.896609    Uiso  ? Zn
   Zn11       1.0     0.831774     0.810744     0.756155    Uiso  ? Zn
   Zn12       1.0     0.819652     0.772859     0.703239    Uiso  ? Zn
   C97        1.0     0.893550     0.705607     0.152938    Uiso  ? C
   C98        1.0     0.110111     0.705718     0.182660    Uiso  ? C
   C99        1.0     0.114104     0.679923     0.197064    Uiso  ? C
   H49        1.0     0.111229     0.659088     0.187563    Uiso  ? H
   C100       1.0     0.123969     0.680292     0.225104    Uiso  ? C
   H50        1.0     0.128845     0.660306     0.235909    Uiso  ? H
   C101       1.0     0.133445     0.705955     0.237627    Uiso  ? C
   H51        1.0     0.143041     0.704690     0.259471    Uiso  ? H
   C102       1.0     0.128922     0.733017     0.223648    Uiso  ? C
   C103       1.0     0.117422     0.732113     0.195709    Uiso  ? C
   H52        1.0     0.113423     0.752585     0.184889    Uiso  ? H
   C104       1.0     0.137974     0.759649     0.236051    Uiso  ? C
   C105       1.0     0.129238     0.693988     0.891719    Uiso  ? C
   C106       1.0     0.160656     0.688000     0.889839    Uiso  ? C
   C107       1.0     0.170490     0.659853     0.885297    Uiso  ? C
   H53        1.0     0.156674     0.641685     0.883199    Uiso  ? H
   C108       1.0     0.200132     0.654498     0.884945    Uiso  ? C
   H54        1.0     0.209019     0.633198     0.882035    Uiso  ? H
   C109       1.0     0.219257     0.677653     0.888338    Uiso  ? C
   H55        1.0     0.241952     0.672511     0.887168    Uiso  ? H
   C110       1.0     0.209187     0.705340     0.891725    Uiso  ? C
   C111       1.0     0.180024     0.710495     0.893179    Uiso  ? C
   H56        1.0     0.172184     0.732309     0.897807    Uiso  ? H
   C112       1.0     0.229624     0.729951     0.891936    Uiso  ? C
   C113       1.0     0.878484     0.702196     0.844064    Uiso  ? C
   C114       1.0     0.881847     0.703180     0.812203    Uiso  ? C
   C115       1.0     0.894840     0.680842     0.797479    Uiso  ? C
   H57        1.0     0.111324     0.663263     0.807884    Uiso  ? H
   C116       1.0     0.896406     0.681576     0.767224    Uiso  ? C
   H58        1.0     0.113293     0.664717     0.755975    Uiso  ? H
   C117       1.0     0.882826     0.704243     0.751458    Uiso  ? C
   H59        1.0     0.882309     0.703693     0.727928    Uiso  ? H
   C118       1.0     0.870303     0.726978     0.767089    Uiso  ? C
   C119       1.0     0.870273     0.726519     0.797180    Uiso  ? C
   H60        1.0     0.861891     0.744458     0.809750    Uiso  ? H
   C120       1.0     0.855884     0.751004     0.752500    Uiso  ? C
   C121       1.0     0.813048     0.714457     0.101933    Uiso  ? C
   C122       1.0     0.781209     0.718076     0.100813    Uiso  ? C
   C123       1.0     0.763491     0.692351     0.897620    Uiso  ? C
   H61        1.0     0.772189     0.670701     0.898537    Uiso  ? H
   C124       1.0     0.733247     0.695845     0.894251    Uiso  ? C
   H62        1.0     0.719362     0.676471     0.891787    Uiso  ? H
   C125       1.0     0.720552     0.722663     0.893462    Uiso  ? C
   H63        1.0     0.697643     0.722369     0.889670    Uiso  ? H
   C126       1.0     0.738382     0.747259     0.896504    Uiso  ? C
   C127       1.0     0.767883     0.744694     0.101760    Uiso  ? C
   H64        1.0     0.781911     0.762870     0.104141    Uiso  ? H
   C128       1.0     0.726061     0.776091     0.892223    Uiso  ? C
   C129       1.0     0.167076     0.857323     0.282192    Uiso  ? C
   C130       1.0     0.172161     0.885260     0.296304    Uiso  ? C
   C131       1.0     0.180000     0.887706     0.325407    Uiso  ? C
   H65        1.0     0.182719     0.868469     0.337239    Uiso  ? H
   C132       1.0     0.186093     0.120269     0.337866    Uiso  ? C
   H66        1.0     0.192362     0.121458     0.360760    Uiso  ? H
   C133       1.0     0.181750     0.145544     0.321793    Uiso  ? C
   H67        1.0     0.184431     0.166712     0.331496    Uiso  ? H
   C134       1.0     0.171490     0.143296     0.293686    Uiso  ? C
   C135       1.0     0.169080     0.116956     0.280542    Uiso  ? C
   H68        1.0     0.165043     0.114953     0.257687    Uiso  ? H
   C136       1.0     0.165048     0.169947     0.276318    Uiso  ? C
   C137       1.0     0.205684     0.780210     0.237355    Uiso  ? C
   C138       1.0     0.230612     0.766246     0.222970    Uiso  ? C
   C139       1.0     0.245322     0.743526     0.236206    Uiso  ? C
   H69        1.0     0.239126     0.736643     0.258011    Uiso  ? H
   C140       1.0     0.267047     0.728834     0.221204    Uiso  ? C
   H70        1.0     0.279373     0.711770     0.231769    Uiso  ? H
   C141       1.0     0.273181     0.735870     0.193018    Uiso  ? C
   H71        1.0     0.288305     0.724397     0.180899    Uiso  ? H
   C142       1.0     0.258611     0.758003     0.179344    Uiso  ? C
   C143       1.0     0.237882     0.773544     0.194768    Uiso  ? C
   H72        1.0     0.224992     0.788936     0.182946    Uiso  ? H
   C144       1.0     0.262739     0.763645     0.148217    Uiso  ? C
   C145       1.0     0.105331     0.797385     0.277898    Uiso  ? C
   C146       1.0     0.868615     0.797282     0.284168    Uiso  ? C
   C147       1.0     0.857980     0.781920     0.308058    Uiso  ? C
   H73        1.0     0.870877     0.767670     0.320934    Uiso  ? H
   C148       1.0     0.828451     0.782573     0.314965    Uiso  ? C
   H74        1.0     0.820387     0.767979     0.331219    Uiso  ? H
   C149       1.0     0.810714     0.801307     0.299285    Uiso  ? C
   H75        1.0     0.787590     0.803057     0.304064    Uiso  ? H
   C150       1.0     0.820862     0.818527     0.277095    Uiso  ? C
   C151       1.0     0.849415     0.815095     0.268367    Uiso  ? C
   H76        1.0     0.857327     0.827726     0.250181    Uiso  ? H
   C152       1.0     0.803210     0.840848     0.263148    Uiso  ? C
   C153       1.0     0.298062     0.818516     0.899107    Uiso  ? C
   C154       1.0     0.316489     0.844729     0.103553    Uiso  ? C
   C155       1.0     0.345837     0.840917     0.109700    Uiso  ? C
   H77        1.0     0.354269     0.819667     0.112711    Uiso  ? H
   C156       1.0     0.363920     0.864472     0.112195    Uiso  ? C
   H78        1.0     0.386523     0.861685     0.117014    Uiso  ? H
   C157       1.0     0.352325     0.892491     0.111943    Uiso  ? C
   H79        1.0     0.367960     0.116799     0.114923    Uiso  ? H
   C158       1.0     0.323744     0.897171     0.103382    Uiso  ? C
   C159       1.0     0.305639     0.873093     0.100000    Uiso  ? C
   H80        1.0     0.284182     0.875202     0.893557    Uiso  ? H
   C160       1.0     0.313334     0.132702     0.100631    Uiso  ? C
   C161       1.0     0.268514     0.785498     0.841618    Uiso  ? C
   C162       1.0     0.273082     0.793983     0.811505    Uiso  ? C
   C163       1.0     0.291671     0.779040     0.793110    Uiso  ? C
   H81        1.0     0.304073     0.760826     0.800775    Uiso  ? H
   C164       1.0     0.296728     0.788165     0.765115    Uiso  ? C
   H82        1.0     0.311743     0.776323     0.751482    Uiso  ? H
   C165       1.0     0.282238     0.812834     0.754149    Uiso  ? C
   H83        1.0     0.283537     0.818604     0.731668    Uiso  ? H
   C166       1.0     0.262862     0.827425     0.771928    Uiso  ? C
   C167       1.0     0.258487     0.818108     0.800088    Uiso  ? C
   H84        1.0     0.243449     0.828984     0.814774    Uiso  ? H
   C168       1.0     0.246352     0.852218     0.760431    Uiso  ? C
   C169       1.0     0.809730     0.129484     0.264649    Uiso  ? C
   C170       1.0     0.825829     0.153335     0.277121    Uiso  ? C
   C171       1.0     0.817709     0.165258     0.303282    Uiso  ? C
   H85        1.0     0.797617     0.157303     0.313374    Uiso  ? H
   C172       1.0     0.832957     0.188632     0.314411    Uiso  ? C
   H86        1.0     0.825606     0.199520     0.333693    Uiso  ? H
   C173       1.0     0.857447     0.198580     0.300544    Uiso  ? C
   H87        1.0     0.868924     0.216564     0.309663    Uiso  ? H
   C174       1.0     0.867767     0.184774     0.275431    Uiso  ? C
   C175       1.0     0.851752     0.162395     0.264082    Uiso  ? C
   H88        1.0     0.858055     0.152228     0.244077    Uiso  ? H
   C176       1.0     0.894598     0.193240     0.261462    Uiso  ? C
   C177       1.0     0.740427     0.846576     0.225014    Uiso  ? C
   C178       1.0     0.718815     0.828192     0.211005    Uiso  ? C
   C179       1.0     0.700635     0.810467     0.227155    Uiso  ? C
   H89        1.0     0.705068     0.808345     0.249573    Uiso  ? H
   C180       1.0     0.677436     0.795994     0.214828    Uiso  ? C
   H90        1.0     0.663188     0.784188     0.228627    Uiso  ? H
   C181       1.0     0.673793     0.796889     0.184324    Uiso  ? C
   H91        1.0     0.657445     0.784660     0.174005    Uiso  ? H
   C182       1.0     0.693560     0.813690     0.167403    Uiso  ? C
   C183       1.0     0.715946     0.828282     0.180912    Uiso  ? C
   H92        1.0     0.728759     0.844157     0.168787    Uiso  ? H
   C184       1.0     0.691269     0.815157     0.135161    Uiso  ? C
   C185       1.0     0.706556     0.801064     0.829354    Uiso  ? C
   C186       1.0     0.712806     0.787100     0.801901    Uiso  ? C
   C187       1.0     0.697113     0.763480     0.792739    Uiso  ? C
   H93        1.0     0.679381     0.756244     0.806913    Uiso  ? H
   C188       1.0     0.703285     0.749473     0.767085    Uiso  ? C
   H94        1.0     0.690539     0.731825     0.759269    Uiso  ? H
   C189       1.0     0.727081     0.757305     0.750412    Uiso  ? C
   H95        1.0     0.732953     0.746934     0.730924    Uiso  ? H
   C190       1.0     0.744359     0.780472     0.760401    Uiso  ? C
   C191       1.0     0.736119     0.796357     0.785097    Uiso  ? C
   H96        1.0     0.749975     0.813834     0.792681    Uiso  ? H
   C192       1.0     0.773072     0.786129     0.747275    Uiso  ? C
   O55        1.0     0.103053     0.726942     0.136718    Uiso  ? O
   O56        1.0     0.878980     0.684650     0.142700    Uiso  ? O
   O57        1.0     0.119953     0.718138     0.102779    Uiso  ? O
   O58        1.0     0.111447     0.675449     0.882363    Uiso  ? O
   O59        1.0     0.875301     0.725552     0.857622    Uiso  ? O
   O60        1.0     0.879581     0.678406     0.858200    Uiso  ? O
   O61        1.0     0.828913     0.734184     0.111038    Uiso  ? O
   O62        1.0     0.823709     0.689853     0.893024    Uiso  ? O
   O63        1.0     0.153451     0.856957     0.258670    Uiso  ? O
   O64        1.0     0.174657     0.834074     0.294023    Uiso  ? O
   O65        1.0     0.194875     0.802954     0.227510    Uiso  ? O
   O66        1.0     0.193507     0.768682     0.258887    Uiso  ? O
   O67        1.0     0.127972     0.783715     0.227499    Uiso  ? O
   O68        1.0     0.155069     0.758972     0.257749    Uiso  ? O
   O69        1.0     0.114336     0.808439     0.254149    Uiso  ? O
   O70        1.0     0.123600     0.787727     0.295791    Uiso  ? O
   O71        1.0     0.273825     0.821706     0.887080    Uiso  ? O
   O72        1.0     0.304243     0.795311     0.108537    Uiso  ? O
   O73        1.0     0.259709     0.804050     0.859830    Uiso  ? O
   O74        1.0     0.274985     0.760591     0.850060    Uiso  ? O
   O75        1.0     0.221422     0.755061     0.883139    Uiso  ? O
   O76        1.0     0.254002     0.728138     0.104253    Uiso  ? O
   O77        1.0     0.256517     0.787805     0.138540    Uiso  ? O
   O78        1.0     0.267440     0.743135     0.130780    Uiso  ? O
   O79        1.0     0.805849     0.129032     0.237301    Uiso  ? O
   O80        1.0     0.796501     0.112634     0.281436    Uiso  ? O
   O81        1.0     0.815333     0.861347     0.250279    Uiso  ? O
   O82        1.0     0.776607     0.841861     0.267298    Uiso  ? O
   O83        1.0     0.755394     0.862995     0.208672    Uiso  ? O
   O84        1.0     0.746402     0.844284     0.251746    Uiso  ? O
   O85        1.0     0.775243     0.131664     0.217880    Uiso  ? O
   O86        1.0     0.738509     0.118158     0.245473    Uiso  ? O
   O87        1.0     0.712058     0.825831     0.121007    Uiso  ? O
   O88        1.0     0.668104     0.806457     0.122952    Uiso  ? O
   O89        1.0     0.740225     0.799413     0.898969    Uiso  ? O
   O90        1.0     0.700401     0.777833     0.882673    Uiso  ? O
   O91        1.0     0.718622     0.824090     0.835634    Uiso  ? O
   O92        1.0     0.690981     0.788189     0.848696    Uiso  ? O
   O93        1.0     0.716770     0.877240     0.886455    Uiso  ? O
   O94        1.0     0.674090     0.860039     0.881281    Uiso  ? O
   O95        1.0     0.127120     0.241112     0.212577    Uiso  ? O
   O96        1.0     0.165201     0.257656     0.235866    Uiso  ? O
   O97        1.0     0.184137     0.195852     0.211733    Uiso  ? O
   O98        1.0     0.190111     0.232279     0.242674    Uiso  ? O
   O99        1.0     0.149769     0.167242     0.253153    Uiso  ? O
   O100       1.0     0.171867     0.194757     0.286661    Uiso  ? O
   O101       1.0     0.115130     0.175295     0.248168    Uiso  ? O
   O102       1.0     0.109106     0.218778     0.264701    Uiso  ? O
   O103       1.0     0.871167     0.782972     0.101731    Uiso  ? O
   O104       1.0     0.149191     0.844406     0.197427    Uiso  ? O
   O105       1.0     0.204857     0.819285     0.107275    Uiso  ? O
   O106       1.0     0.819509     0.875026     0.182673    Uiso  ? O
   O107       1.0     0.753798     0.872290     0.878437    Uiso  ? O
   O108       1.0     0.125040     0.181271     0.179715    Uiso  ? O
   Zn13       1.0     0.872747     0.737242     0.101206    Uiso  ? Zn
   Zn14       1.0     0.864814     0.673716     0.101192    Uiso  ? Zn
   Zn15       1.0     0.153721     0.820355     0.233528    Uiso  ? Zn
   Zn16       1.0     0.167437     0.789226     0.289910    Uiso  ? Zn
   Zn17       1.0     0.240741     0.793741     0.898606    Uiso  ? Zn
   Zn18       1.0     0.288213     0.754430     0.893153    Uiso  ? Zn
   Zn19       1.0     0.793382     0.884858     0.218666    Uiso  ? Zn
   Zn20       1.0     0.758390     0.883013     0.271814    Uiso  ? Zn
   Zn21       1.0     0.725423     0.836215     0.878504    Uiso  ? Zn
   Zn22       1.0     0.668604     0.814118     0.880145    Uiso  ? Zn
   Zn23       1.0     0.140203     0.197218     0.217708    Uiso  ? Zn
   Zn24       1.0     0.152694     0.230878     0.269230    Uiso  ? Zn
   H97        1.0     0.165959     0.853758     0.188946    Uiso  ? H
   H98        1.0     0.130185     0.847976     0.190213    Uiso  ? H
   H99        1.0     0.847175     0.149502     0.798028    Uiso  ? H
   H100       1.0     0.874785     0.173004     0.799762    Uiso  ? H
   H101       1.0     0.844520     0.849900     0.794906    Uiso  ? H
   H102       1.0     0.828224     0.822603     0.811634    Uiso  ? H
   H103       1.0     0.163499     0.112070     0.803157    Uiso  ? H
   H104       1.0     0.187545     0.882635     0.814531    Uiso  ? H
   H105       1.0     0.127571     0.191000     0.162009    Uiso  ? H
   H106       1.0     0.116223     0.162770     0.178609    Uiso  ? H
   H107       1.0     0.115437     0.219885     0.853913    Uiso  ? H
   H108       1.0     0.110503     0.218497     0.887183    Uiso  ? H
   H109       1.0     0.208803     0.150128     0.876425    Uiso  ? H
   H110       1.0     0.217249     0.134804     0.106873    Uiso  ? H
   H111       1.0     0.838591     0.868297     0.185933    Uiso  ? H
   H112       1.0     0.812413     0.880541     0.163947    Uiso  ? H
   H113       1.0     0.824871     0.196451     0.896042    Uiso  ? H
   H114       1.0     0.817662     0.197083     0.130641    Uiso  ? H
   H115       1.0     0.759348     0.882564     0.860476    Uiso  ? H
   H116       1.0     0.768435     0.868768     0.893078    Uiso  ? H
   H117       1.0     0.186261     0.814988     0.100661    Uiso  ? H
   H118       1.0     0.207162     0.836853     0.117660    Uiso  ? H
   H119       1.0     0.875821     0.792332     0.119763    Uiso  ? H
   H120       1.0     0.864614     0.794048     0.886596    Uiso  ? H
   C193       1.0     0.153759     0.444516     0.300069    Uiso  ? C
   C194       1.0     0.144280     0.414337     0.299006    Uiso  ? C
   C195       1.0     0.153188     0.396024     0.276296    Uiso  ? C
   H121       1.0     0.165816     0.404114     0.258395    Uiso  ? H
   C196       1.0     0.145353     0.366551     0.276243    Uiso  ? C
   H122       1.0     0.152977     0.351661     0.259596    Uiso  ? H
   C197       1.0     0.127603     0.356144     0.298067    Uiso  ? C
   H123       1.0     0.121662     0.334147     0.296856    Uiso  ? H
   C198       1.0     0.116664     0.374523     0.319812    Uiso  ? C
   C199       1.0     0.125206     0.403496     0.319441    Uiso  ? C
   H124       1.0     0.116564     0.416431     0.336721    Uiso  ? H
   C200       1.0     0.892098     0.362466     0.341818    Uiso  ? C
   C201       1.0     0.119534     0.509241     0.294062    Uiso  ? C
   C202       1.0     0.884211     0.517305     0.286779    Uiso  ? C
   C203       1.0     0.877019     0.525116     0.258604    Uiso  ? C
   H125       1.0     0.893560     0.529338     0.242872    Uiso  ? H
   C204       1.0     0.849179     0.528153     0.249691    Uiso  ? C
   H126       1.0     0.843391     0.534207     0.228435    Uiso  ? H
   C205       1.0     0.826549     0.523125     0.269297    Uiso  ? C
   H127       1.0     0.804836     0.525926     0.261817    Uiso  ? H
   C206       1.0     0.832562     0.517990     0.298664    Uiso  ? C
   C207       1.0     0.861523     0.513173     0.306806    Uiso  ? C
   H128       1.0     0.866205     0.506129     0.328283    Uiso  ? H
   C208       1.0     0.808678     0.517296     0.320216    Uiso  ? C
   C209       1.0     0.204140     0.543868     0.305084    Uiso  ? C
   C210       1.0     0.220840     0.570896     0.309267    Uiso  ? C
   C211       1.0     0.238528     0.581933     0.287793    Uiso  ? C
   H129       1.0     0.237491     0.574109     0.265904    Uiso  ? H
   C212       1.0     0.254179     0.606498     0.292859    Uiso  ? C
   H130       1.0     0.265207     0.616137     0.274703    Uiso  ? H
   C213       1.0     0.256094     0.619498     0.319815    Uiso  ? C
   H131       1.0     0.270587     0.637244     0.323268    Uiso  ? H
   C214       1.0     0.239617     0.608070     0.342515    Uiso  ? C
   C215       1.0     0.220269     0.584502     0.337030    Uiso  ? C
   H132       1.0     0.208959     0.574117     0.354830    Uiso  ? H
   C216       1.0     0.242152     0.618946     0.372723    Uiso  ? C
   C217       1.0     0.222303     0.478484     0.321556    Uiso  ? C
   C218       1.0     0.251316     0.467331     0.330330    Uiso  ? C
   C219       1.0     0.272971     0.462634     0.310017    Uiso  ? C
   H133       1.0     0.268811     0.467251     0.287118    Uiso  ? H
   C220       1.0     0.300579     0.454621     0.319011    Uiso  ? C
   H134       1.0     0.316044     0.449754     0.301319    Uiso  ? H
   C221       1.0     0.306560     0.449535     0.348039    Uiso  ? C
   H135       1.0     0.327440     0.441146     0.354033    Uiso  ? H
   C222       1.0     0.284351     0.453966     0.368797    Uiso  ? C
   C223       1.0     0.256904     0.462187     0.359587    Uiso  ? C
   H136       1.0     0.240040     0.466085     0.375491    Uiso  ? H
   C224       1.0     0.290455     0.449091     0.399562    Uiso  ? C
   C225       1.0     0.818332     0.318181     0.412590    Uiso  ? C
   C226       1.0     0.798547     0.306200     0.434204    Uiso  ? C
   C227       1.0     0.789849     0.276837     0.431803    Uiso  ? C
   H137       1.0     0.797521     0.263583     0.414645    Uiso  ? H
   C228       1.0     0.772277     0.264103     0.452955    Uiso  ? C
   H138       1.0     0.765028     0.242497     0.449620    Uiso  ? H
   C229       1.0     0.763392     0.280101     0.476730    Uiso  ? C
   H139       1.0     0.750579     0.269895     0.492756    Uiso  ? H
   C230       1.0     0.771072     0.309127     0.478981    Uiso  ? C
   C231       1.0     0.787886     0.322466     0.457096    Uiso  ? C
   H140       1.0     0.791690     0.344611     0.458112    Uiso  ? H
   C232       1.0     0.764674     0.325318     0.506338    Uiso  ? C
   C233       1.0     0.820548     0.372103     0.348735    Uiso  ? C
   C234       1.0     0.799606     0.390485     0.333626    Uiso  ? C
   C235       1.0     0.784224     0.380820     0.309849    Uiso  ? C
   H141       1.0     0.784828     0.358562     0.301729    Uiso  ? H
   C236       1.0     0.765512     0.399237     0.295033    Uiso  ? C
   H142       1.0     0.752239     0.390706     0.277615    Uiso  ? H
   C237       1.0     0.760849     0.426925     0.304145    Uiso  ? C
   H143       1.0     0.744763     0.439403     0.293005    Uiso  ? H
   C238       1.0     0.775073     0.437006     0.329002    Uiso  ? C
   C239       1.0     0.795489     0.418924     0.342402    Uiso  ? C
   H144       1.0     0.806098     0.426379     0.360990    Uiso  ? H
   C240       1.0     0.770378     0.465634     0.339608    Uiso  ? C
   C241       1.0     0.886847     0.301176     0.407206    Uiso  ? C
   C242       1.0     0.107679     0.283129     0.427284    Uiso  ? C
   C243       1.0     0.111280     0.253414     0.421507    Uiso  ? C
   H145       1.0     0.103467     0.243374     0.401903    Uiso  ? H
   C244       1.0     0.124094     0.235429     0.442468    Uiso  ? C
   H146       1.0     0.125583     0.211597     0.439107    Uiso  ? H
   C245       1.0     0.134130     0.247218     0.468298    Uiso  ? C
   H147       1.0     0.144729     0.233200     0.484582    Uiso  ? H
   C246       1.0     0.133386     0.276673     0.472793    Uiso  ? C
   C247       1.0     0.119384     0.294548     0.452416    Uiso  ? C
   H148       1.0     0.116904     0.316837     0.456258    Uiso  ? H
   C248       1.0     0.142281     0.289353     0.499880    Uiso  ? C
   C249       1.0     0.728146     0.527369     0.398516    Uiso  ? C
   C250       1.0     0.705557     0.532579     0.420034    Uiso  ? C
   C251       1.0     0.676538     0.526126     0.413657    Uiso  ? C
   H149       1.0     0.669932     0.520370     0.391540    Uiso  ? H
   C252       1.0     0.655746     0.529890     0.435181    Uiso  ? C
   H150       1.0     0.633541     0.525632     0.429696    Uiso  ? H
   C253       1.0     0.663875     0.536149     0.463490    Uiso  ? C
   H151       1.0     0.647742     0.537538     0.479967    Uiso  ? H
   C254       1.0     0.692630     0.542927     0.469920    Uiso  ? C
   C255       1.0     0.712853     0.541574     0.447840    Uiso  ? C
   H152       1.0     0.734761     0.546741     0.453312    Uiso  ? H
   C256       1.0     0.701876     0.550869     0.500337    Uiso  ? C
   C257       1.0     0.786995     0.571789     0.351025    Uiso  ? C
   C258       1.0     0.798399     0.601567     0.347732    Uiso  ? C
   C259       1.0     0.797010     0.616126     0.320959    Uiso  ? C
   H153       1.0     0.789574     0.604718     0.302717    Uiso  ? H
   C260       1.0     0.805169     0.644638     0.319473    Uiso  ? C
   H154       1.0     0.805579     0.656094     0.298991    Uiso  ? H
   C261       1.0     0.815411     0.658959     0.343815    Uiso  ? C
   H155       1.0     0.822923     0.680984     0.341704    Uiso  ? H
   C262       1.0     0.815634     0.645839     0.370826    Uiso  ? C
   C263       1.0     0.808203     0.616302     0.371745    Uiso  ? C
   H156       1.0     0.810454     0.606131     0.393089    Uiso  ? H
   C264       1.0     0.824908     0.661184     0.397249    Uiso  ? C
   C265       1.0     0.110633     0.300265     0.565225    Uiso  ? C
   C266       1.0     0.875647     0.291119     0.572933    Uiso  ? C
   C267       1.0     0.869908     0.262866     0.583216    Uiso  ? C
   H157       1.0     0.887358     0.248994     0.588473    Uiso  ? H
   C268       1.0     0.841722     0.253859     0.588626    Uiso  ? C
   H158       1.0     0.837845     0.231942     0.597305    Uiso  ? H
   C269       1.0     0.819423     0.273383     0.584361    Uiso  ? C
   H159       1.0     0.798053     0.265961     0.586682    Uiso  ? H
   C270       1.0     0.824981     0.301990     0.576180    Uiso  ? C
   C271       1.0     0.852896     0.310699     0.571122    Uiso  ? C
   H160       1.0     0.858064     0.331847     0.562401    Uiso  ? H
   C272       1.0     0.801642     0.322193     0.570006    Uiso  ? C
   C273       1.0     0.211837     0.329216     0.530538    Uiso  ? C
   C274       1.0     0.240689     0.337036     0.520175    Uiso  ? C
   C275       1.0     0.261096     0.316012     0.520160    Uiso  ? C
   H161       1.0     0.257299     0.294516     0.530426    Uiso  ? H
   C276       1.0     0.287719     0.320810     0.508209    Uiso  ? C
   H162       1.0     0.302727     0.301732     0.506720    Uiso  ? H
   C277       1.0     0.294112     0.347128     0.495947    Uiso  ? C
   H163       1.0     0.315127     0.350463     0.486747    Uiso  ? H
   C278       1.0     0.273823     0.368914     0.494094    Uiso  ? C
   C279       1.0     0.247130     0.364608     0.507777    Uiso  ? C
   H164       1.0     0.230249     0.381042     0.508151    Uiso  ? H
   C280       1.0     0.279646     0.396980     0.480879    Uiso  ? C
   C281       1.0     0.305048     0.502035     0.461593    Uiso  ? C
   C282       1.0     0.313686     0.532504     0.464205    Uiso  ? C
   C283       1.0     0.342457     0.541243     0.467652    Uiso  ? C
   H165       1.0     0.358770     0.525385     0.469997    Uiso  ? H
   C284       1.0     0.350390     0.570312     0.469602    Uiso  ? C
   H166       1.0     0.372938     0.577068     0.470594    Uiso  ? H
   C285       1.0     0.328664     0.591511     0.466713    Uiso  ? C
   H167       1.0     0.336355     0.613819     0.465560    Uiso  ? H
   C286       1.0     0.299952     0.583258     0.461458    Uiso  ? C
   C287       1.0     0.293163     0.553766     0.460466    Uiso  ? C
   H168       1.0     0.270589     0.548268     0.457418    Uiso  ? H
   C288       1.0     0.278157     0.604475     0.453701    Uiso  ? C
   O109       1.0     0.142661     0.462441     0.317794    Uiso  ? O
   O110       1.0     0.172682     0.452795     0.282430    Uiso  ? O
   O111       1.0     0.123852     0.491593     0.313786    Uiso  ? O
   O112       1.0     0.141138     0.519867     0.280381    Uiso  ? O
   O113       1.0     0.181869     0.539912     0.320152    Uiso  ? O
   O114       1.0     0.212466     0.524908     0.287468    Uiso  ? O
   O115       1.0     0.201404     0.477060     0.339253    Uiso  ? O
   O116       1.0     0.218267     0.489100     0.296585    Uiso  ? O
   O117       1.0     0.824478     0.345021     0.413971    Uiso  ? O
   O118       1.0     0.832038     0.301900     0.395043    Uiso  ? O
   O119       1.0     0.841737     0.383247     0.363015    Uiso  ? O
   O120       1.0     0.819689     0.345128     0.345539    Uiso  ? O
   O121       1.0     0.876772     0.378853     0.358043    Uiso  ? O
   O122       1.0     0.888966     0.334972     0.342831    Uiso  ? O
   O123       1.0     0.892748     0.328110     0.406383    Uiso  ? O
   O124       1.0     0.865677     0.291247     0.392855    Uiso  ? O
   O125       1.0     0.753508     0.533052     0.404416    Uiso  ? O
   O126       1.0     0.722290     0.515282     0.374658    Uiso  ? O
   O127       1.0     0.800901     0.552830     0.366314    Uiso  ? O
   O128       1.0     0.762958     0.565342     0.338740    Uiso  ? O
   O129       1.0     0.813897     0.522339     0.346609    Uiso  ? O
   O130       1.0     0.782553     0.513697     0.311950    Uiso  ? O
   O131       1.0     0.778814     0.472969     0.364400    Uiso  ? O
   O132       1.0     0.761365     0.484663     0.321569    Uiso  ? O
   O133       1.0     0.116512     0.326755     0.563369    Uiso  ? O
   O134       1.0     0.127930     0.281020     0.555694    Uiso  ? O
   O135       1.0     0.150240     0.315445     0.500574    Uiso  ? O
   O136       1.0     0.140524     0.275479     0.523193    Uiso  ? O
   O137       1.0     0.194508     0.347699     0.541373    Uiso  ? O
   O138       1.0     0.204840     0.303034     0.530452    Uiso  ? O
   O139       1.0     0.176864     0.347688     0.572454    Uiso  ? O
   O140       1.0     0.168169     0.306217     0.593888    Uiso  ? O
   O141       1.0     0.265557     0.418497     0.489086    Uiso  ? O
   O142       1.0     0.300332     0.400132     0.462886    Uiso  ? O
   O143       1.0     0.269333     0.446922     0.416445    Uiso  ? O
   O144       1.0     0.315836     0.447587     0.408797    Uiso  ? O
   O145       1.0     0.278759     0.495272     0.462089    Uiso  ? O
   O146       1.0     0.324974     0.482319     0.460277    Uiso  ? O
   O147       1.0     0.283630     0.447976     0.501884    Uiso  ? O
   O148       1.0     0.328503     0.458712     0.488111    Uiso  ? O
   O149       1.0     0.768265     0.388805     0.585542    Uiso  ? O
   O150       1.0     0.748676     0.349587     0.602259    Uiso  ? O
   O151       1.0     0.750450     0.404078     0.556134    Uiso  ? O
   O152       1.0     0.718323     0.372412     0.541489    Uiso  ? O
   O153       1.0     0.765845     0.352744     0.507367    Uiso  ? O
   O154       1.0     0.760192     0.311818     0.530003    Uiso  ? O
   O155       1.0     0.807668     0.348955     0.569016    Uiso  ? O
   O156       1.0     0.776310     0.313547     0.561460    Uiso  ? O
   O157       1.0     0.151490     0.511311     0.377563    Uiso  ? O
   O158       1.0     0.873724     0.387122     0.431958    Uiso  ? O
   O159       1.0     0.809088     0.501973     0.419467    Uiso  ? O
   O160       1.0     0.132226     0.377034     0.519355    Uiso  ? O
   O161       1.0     0.217919     0.458583     0.460719    Uiso  ? O
   O162       1.0     0.815563     0.401079     0.525113    Uiso  ? O
   Zn25       1.0     0.162399     0.500680     0.335905    Uiso  ? Zn
   Zn26       1.0     0.180408     0.496941     0.273504    Uiso  ? Zn
   Zn27       1.0     0.863424     0.360115     0.397509    Uiso  ? Zn
   Zn28       1.0     0.851301     0.314049     0.354972    Uiso  ? Zn
   Zn29       1.0     0.786789     0.512722     0.382018    Uiso  ? Zn
   Zn30       1.0     0.743773     0.525303     0.336021    Uiso  ? Zn
   Zn31       1.0     0.149256     0.341200     0.536775    Uiso  ? Zn
   Zn32       1.0     0.171088     0.284676     0.554914    Uiso  ? Zn
   Zn33       1.0     0.261734     0.454788     0.461121    Uiso  ? Zn
   Zn34       1.0     0.324893     0.436477     0.449590    Uiso  ? Zn
   Zn35       1.0     0.782504     0.375849     0.543291    Uiso  ? Zn
   Zn36       1.0     0.736074     0.335322     0.562124    Uiso  ? Zn
   C289       1.0     0.858046     0.540594     0.689223    Uiso  ? C
   C290       1.0     0.869852     0.569710     0.689577    Uiso  ? C
   C291       1.0     0.865516     0.587070     0.714020    Uiso  ? C
   H169       1.0     0.854677     0.578600     0.732698    Uiso  ? H
   C292       1.0     0.875999     0.614801     0.714911    Uiso  ? C
   H170       1.0     0.872292     0.628580     0.733326    Uiso  ? H
   C293       1.0     0.889024     0.626920     0.690756    Uiso  ? C
   H171       1.0     0.103277     0.647690     0.690563    Uiso  ? H
   C294       1.0     0.894952     0.609672     0.666645    Uiso  ? C
   C295       1.0     0.884083     0.581673     0.665642    Uiso  ? C
   H172       1.0     0.888185     0.567919     0.647378    Uiso  ? H
   C296       1.0     0.117755     0.621749     0.642979    Uiso  ? C
   C297       1.0     0.889310     0.481959     0.712916    Uiso  ? C
   C298       1.0     0.125261     0.478492     0.722344    Uiso  ? C
   C299       1.0     0.133132     0.481220     0.751089    Uiso  ? C
   H173       1.0     0.116668     0.483344     0.767652    Uiso  ? H
   C300       1.0     0.162407     0.477766     0.758919    Uiso  ? C
   H174       1.0     0.167357     0.478413     0.781713    Uiso  ? H
   C301       1.0     0.183593     0.473304     0.737733    Uiso  ? C
   H175       1.0     0.205764     0.468901     0.744264    Uiso  ? H
   C302       1.0     0.176184     0.472230     0.708595    Uiso  ? C
   C303       1.0     0.147342     0.474500     0.701216    Uiso  ? C
   H176       1.0     0.141752     0.472599     0.678719    Uiso  ? H
   C304       1.0     0.199026     0.468592     0.686506    Uiso  ? C
   C305       1.0     0.804067     0.443788     0.676187    Uiso  ? C
   C306       1.0     0.784330     0.419597     0.670497    Uiso  ? C
   C307       1.0     0.765950     0.408296     0.691527    Uiso  ? C
   H177       1.0     0.764925     0.417260     0.713034    Uiso  ? H
   C308       1.0     0.744924     0.388327     0.684322    Uiso  ? C
   H178       1.0     0.729607     0.380971     0.700146    Uiso  ? H
   C309       1.0     0.742514     0.378123     0.657395    Uiso  ? C
   H179       1.0     0.725357     0.362381     0.653997    Uiso  ? H
   C310       1.0     0.761506     0.386245     0.635716    Uiso  ? C
   C311       1.0     0.782457     0.407340     0.642573    Uiso  ? C
   H180       1.0     0.793895     0.416541     0.625167    Uiso  ? H
   C312       1.0     0.759421     0.374075     0.606563    Uiso  ? C
   C313       1.0     0.793590     0.528185     0.686869    Uiso  ? C
   C314       1.0     0.769481     0.547076     0.677059    Uiso  ? C
   C315       1.0     0.751101     0.560198     0.697659    Uiso  ? C
   H181       1.0     0.754507     0.558130     0.720897    Uiso  ? H
   C316       1.0     0.726804     0.574622     0.687297    Uiso  ? C
   H182       1.0     0.711803     0.583756     0.702025    Uiso  ? H
   C317       1.0     0.720864     0.577028     0.657770    Uiso  ? C
   H183       1.0     0.701913     0.588168     0.651143    Uiso  ? H
   C318       1.0     0.739192     0.564644     0.637352    Uiso  ? C
   C319       1.0     0.763570     0.550519     0.647172    Uiso  ? C
   H184       1.0     0.776742     0.538288     0.632097    Uiso  ? H
   C320       1.0     0.731828     0.565074     0.606901    Uiso  ? C
   C321       1.0     0.194770     0.659275     0.574550    Uiso  ? C
   C322       1.0     0.216044     0.670033     0.553767    Uiso  ? C
   C323       1.0     0.229057     0.696387     0.558784    Uiso  ? C
   H185       1.0     0.226691     0.706294     0.579438    Uiso  ? H
   C324       1.0     0.245584     0.709975     0.538841    Uiso  ? C
   H186       1.0     0.256878     0.730346     0.543482    Uiso  ? H
   C325       1.0     0.248670     0.697471     0.511939    Uiso  ? C
   H187       1.0     0.261990     0.708936     0.497468    Uiso  ? H
   C326       1.0     0.234998     0.671444     0.505238    Uiso  ? C
   C327       1.0     0.219322     0.657471     0.526513    Uiso  ? C
   H188       1.0     0.210856     0.636065     0.521816    Uiso  ? H
   C328       1.0     0.240421     0.658265     0.476691    Uiso  ? C
   C329       1.0     0.189491     0.616538     0.639932    Uiso  ? C
   C330       1.0     0.210967     0.598225     0.654560    Uiso  ? C
   C331       1.0     0.228065     0.609629     0.676631    Uiso  ? C
   H189       1.0     0.226431     0.632397     0.682879    Uiso  ? H
   C332       1.0     0.246202     0.592177     0.692314    Uiso  ? C
   H190       1.0     0.259354     0.602033     0.709181    Uiso  ? H
   C333       1.0     0.249544     0.562971     0.685516    Uiso  ? C
   H191       1.0     0.264442     0.549825     0.697608    Uiso  ? H
   C334       1.0     0.231667     0.550431     0.664168    Uiso  ? C
   C335       1.0     0.212791     0.569036     0.648024    Uiso  ? C
   H192       1.0     0.199823     0.559677     0.630924    Uiso  ? H
   C336       1.0     0.232597     0.518705     0.657830    Uiso  ? C
   C337       1.0     0.129311     0.687897     0.580250    Uiso  ? C
   C338       1.0     0.119443     0.708699     0.559076    Uiso  ? C
   C339       1.0     0.129086     0.737225     0.558116    Uiso  ? C
   H193       1.0     0.142733     0.746067     0.575686    Uiso  ? H
   C340       1.0     0.120188     0.755682     0.536390    Uiso  ? C
   H194       1.0     0.126468     0.777079     0.536272    Uiso  ? H
   C341       1.0     0.896947     0.744724     0.514701    Uiso  ? C
   H195       1.0     0.890476     0.759352     0.497711    Uiso  ? H
   C342       1.0     0.885676     0.716906     0.514686    Uiso  ? C
   C343       1.0     0.894802     0.699093     0.537125    Uiso  ? C
   H196       1.0     0.887341     0.676523     0.536511    Uiso  ? H
   C344       1.0     0.867288     0.706096     0.490890    Uiso  ? C
   C345       1.0     0.279925     0.458139     0.610500    Uiso  ? C
   C346       1.0     0.303431     0.457890     0.589629    Uiso  ? C
   C347       1.0     0.332073     0.460568     0.597601    Uiso  ? C
   H197       1.0     0.338449     0.462254     0.619793    Uiso  ? H
   C348       1.0     0.353895     0.460933     0.576769    Uiso  ? C
   H198       1.0     0.376364     0.463605     0.583033    Uiso  ? H
   C349       1.0     0.347220     0.458800     0.547438    Uiso  ? C
   H199       1.0     0.363867     0.459797     0.530987    Uiso  ? H
   C350       1.0     0.318370     0.456419     0.538813    Uiso  ? C
   C351       1.0     0.296934     0.455325     0.560723    Uiso  ? C
   H200       1.0     0.274281     0.453770     0.554923    Uiso  ? H
   C352       1.0     0.309501     0.455497     0.507962    Uiso  ? C
   C353       1.0     0.218317     0.410566     0.651383    Uiso  ? C
   C354       1.0     0.209866     0.380889     0.649405    Uiso  ? C
   C355       1.0     0.217939     0.362011     0.671215    Uiso  ? C
   H201       1.0     0.230681     0.369232     0.688948    Uiso  ? H
   C356       1.0     0.209213     0.333211     0.669529    Uiso  ? C
   H202       1.0     0.215931     0.317823     0.684926    Uiso  ? H
   C357       1.0     0.195753     0.322754     0.644539    Uiso  ? C
   H203       1.0     0.191774     0.299559     0.641085    Uiso  ? H
   C358       1.0     0.188230     0.342603     0.622654    Uiso  ? C
   C359       1.0     0.194110     0.371676     0.626440    Uiso  ? C
   H204       1.0     0.189025     0.387583     0.610191    Uiso  ? H
   C360       1.0     0.175773     0.332070     0.595048    Uiso  ? C
   C361       1.0     0.894400     0.707602     0.424632    Uiso  ? C
   C362       1.0     0.130106     0.715726     0.421387    Uiso  ? C
   C363       1.0     0.138168     0.745004     0.415161    Uiso  ? C
   H205       1.0     0.122397     0.761972     0.414166    Uiso  ? H
   C364       1.0     0.166680     0.752724     0.415184    Uiso  ? C
   H206       1.0     0.172299     0.775176     0.413640    Uiso  ? H
   C365       1.0     0.187805     0.731821     0.419447    Uiso  ? C
   H207       1.0     0.210100     0.738404     0.421919    Uiso  ? H
   C366       1.0     0.180002     0.702757     0.422888    Uiso  ? C
   C367       1.0     0.151346     0.695085     0.423101    Uiso  ? C
   H208       1.0     0.145534     0.672943     0.425568    Uiso  ? H
   C368       1.0     0.202110     0.679667     0.425235    Uiso  ? C
   C369       1.0     0.798051     0.671540     0.465304    Uiso  ? C
   C370       1.0     0.770917     0.665924     0.481058    Uiso  ? C
   C371       1.0     0.750970     0.687974     0.484661    Uiso  ? C
   H209       1.0     0.752611     0.708414     0.473693    Uiso  ? H
   C372       1.0     0.727580     0.684637     0.502790    Uiso  ? C
   H210       1.0     0.713010     0.702110     0.505754    Uiso  ? H
   C373       1.0     0.722717     0.658304     0.516582    Uiso  ? C
   H211       1.0     0.703296     0.655611     0.529370    Uiso  ? H
   C374       1.0     0.741022     0.634836     0.511686    Uiso  ? C
   C375       1.0     0.763931     0.638515     0.492696    Uiso  ? C
   H212       1.0     0.777640     0.620363     0.490739    Uiso  ? H
   C376       1.0     0.734347     0.606485     0.524982    Uiso  ? C
   C377       1.0     0.703135     0.503118     0.547721    Uiso  ? C
   C378       1.0     0.692817     0.472932     0.543639    Uiso  ? C
   C379       1.0     0.665973     0.467432     0.531960    Uiso  ? C
   H213       1.0     0.650875     0.484154     0.528684    Uiso  ? H
   C380       1.0     0.657986     0.439158     0.524926    Uiso  ? C
   H214       1.0     0.637251     0.435165     0.515444    Uiso  ? H
   C381       1.0     0.676836     0.416223     0.530800    Uiso  ? C
   H215       1.0     0.669045     0.394993     0.525860    Uiso  ? H
   C382       1.0     0.704548     0.421731     0.542724    Uiso  ? C
   C383       1.0     0.712368     0.450152     0.548853    Uiso  ? C
   H216       1.0     0.733398     0.454793     0.557878    Uiso  ? H
   C384       1.0     0.725412     0.398360     0.546660    Uiso  ? C
   O163       1.0     0.848541     0.530397     0.665882    Uiso  ? O
   O164       1.0     0.853480     0.527013     0.713062    Uiso  ? O
   O165       1.0     0.882852     0.475183     0.686992    Uiso  ? O
   O166       1.0     0.870705     0.494069     0.729260    Uiso  ? O
   O167       1.0     0.817739     0.454645     0.655687    Uiso  ? O
   O168       1.0     0.806479     0.454445     0.701695    Uiso  ? O
   O169       1.0     0.810772     0.518061     0.668249    Uiso  ? O
   O170       1.0     0.796421     0.522341     0.713030    Uiso  ? O
   O171       1.0     0.184504     0.633675     0.572512    Uiso  ? O
   O172       1.0     0.184014     0.677242     0.591968    Uiso  ? O
   O173       1.0     0.169830     0.605585     0.624222    Uiso  ? O
   O174       1.0     0.190882     0.642944     0.642956    Uiso  ? O
   O175       1.0     0.133759     0.605712     0.628281    Uiso  ? O
   O176       1.0     0.118869     0.648676     0.638304    Uiso  ? O
   O177       1.0     0.120536     0.662157     0.579400    Uiso  ? O
   O178       1.0     0.151992     0.693642     0.594429    Uiso  ? O
   O179       1.0     0.254810     0.450381     0.603237    Uiso  ? O
   O180       1.0     0.284824     0.467226     0.635533    Uiso  ? O
   O181       1.0     0.201601     0.430715     0.642565    Uiso  ? O
   O182       1.0     0.242628     0.417567     0.661308    Uiso  ? O
   O183       1.0     0.193193     0.458422     0.661613    Uiso  ? O
   O184       1.0     0.224878     0.475174     0.692584    Uiso  ? O
   O185       1.0     0.222028     0.509215     0.634253    Uiso  ? O
   O186       1.0     0.243616     0.501305     0.675972    Uiso  ? O
   O187       1.0     0.887044     0.680981     0.424146    Uiso  ? O
   O188       1.0     0.877373     0.725303     0.437260    Uiso  ? O
   O189       1.0     0.861257     0.679549     0.487851    Uiso  ? O
   O190       1.0     0.862975     0.722956     0.469267    Uiso  ? O
   O191       1.0     0.812357     0.651537     0.453864    Uiso  ? O
   O192       1.0     0.807028     0.697160     0.463513    Uiso  ? O
   O193       1.0     0.824427     0.647413     0.421223    Uiso  ? O
   O194       1.0     0.832472     0.687351     0.396048    Uiso  ? O
   O195       1.0     0.746930     0.583507     0.516449    Uiso  ? O
   O196       1.0     0.714734     0.604690     0.543873    Uiso  ? O
   O197       1.0     0.750897     0.566150     0.587797    Uiso  ? O
   O198       1.0     0.705935     0.560561     0.599949    Uiso  ? O
   O199       1.0     0.729946     0.508487     0.548909    Uiso  ? O
   O200       1.0     0.685438     0.524060     0.547472    Uiso  ? O
   O201       1.0     0.728050     0.553880     0.505638    Uiso  ? O
   O202       1.0     0.684409     0.549561     0.521322    Uiso  ? O
   O203       1.0     0.238672     0.601455     0.393241    Uiso  ? O
   O204       1.0     0.246054     0.645330     0.377568    Uiso  ? O
   O205       1.0     0.251848     0.600916     0.461183    Uiso  ? O
   O206       1.0     0.285101     0.623437     0.434861    Uiso  ? O
   O207       1.0     0.232242     0.632210     0.471775    Uiso  ? O
   O208       1.0     0.248202     0.674493     0.456265    Uiso  ? O
   O209       1.0     0.194654     0.653614     0.425835    Uiso  ? O
   O210       1.0     0.228733     0.686368     0.427190    Uiso  ? O
   O211       1.0     0.838797     0.463441     0.627022    Uiso  ? O
   O212       1.0     0.126030     0.595218     0.560958    Uiso  ? O
   O213       1.0     0.192332     0.469882     0.586549    Uiso  ? O
   O214       1.0     0.881011     0.621560     0.454353    Uiso  ? O
   O215       1.0     0.793674     0.535369     0.542700    Uiso  ? O
   O216       1.0     0.185440     0.584590     0.432278    Uiso  ? O
   Zn37       1.0     0.845205     0.485236     0.666395    Uiso  ? Zn
   Zn38       1.0     0.824745     0.490586     0.725295    Uiso  ? Zn
   Zn39       1.0     0.145225     0.624480     0.589015    Uiso  ? Zn
   Zn40       1.0     0.157321     0.668817     0.630546    Uiso  ? Zn
   Zn41       1.0     0.218265     0.466732     0.622147    Uiso  ? Zn
   Zn42       1.0     0.260117     0.457806     0.670665    Uiso  ? Zn
   Zn43       1.0     0.857147     0.658115     0.449734    Uiso  ? Zn
   Zn44       1.0     0.834154     0.714494     0.434363    Uiso  ? Zn
   Zn45       1.0     0.750536     0.548869     0.546592    Uiso  ? Zn
   Zn46       1.0     0.691726     0.570423     0.559643    Uiso  ? Zn
   Zn47       1.0     0.219784     0.614277     0.431403    Uiso  ? Zn
   Zn48       1.0     0.264507     0.658551     0.415721    Uiso  ? Zn
   H217       1.0     0.128107     0.575705     0.566133    Uiso  ? H
   H218       1.0     0.125158     0.599198     0.541010    Uiso  ? H
   H219       1.0     0.880586     0.407235     0.428225    Uiso  ? H
   H220       1.0     0.868768     0.380719     0.451525    Uiso  ? H
   H221       1.0     0.832646     0.402037     0.536160    Uiso  ? H
   H222       1.0     0.809969     0.418531     0.514828    Uiso  ? H
   H223       1.0     0.126374     0.375522     0.500346    Uiso  ? H
   H224       1.0     0.127110     0.393189     0.530622    Uiso  ? H
   H225       1.0     0.181418     0.574339     0.414918    Uiso  ? H
   H226       1.0     0.174685     0.581055     0.449923    Uiso  ? H
   H227       1.0     0.133120     0.518920     0.382104    Uiso  ? H
   H228       1.0     0.165221     0.510868     0.393325    Uiso  ? H
   H229       1.0     0.212361     0.477202     0.453333    Uiso  ? H
   H230       1.0     0.205583     0.442875     0.464699    Uiso  ? H
   H231       1.0     0.104640     0.621304     0.445604    Uiso  ? H
   H232       1.0     0.875163     0.605583     0.466202    Uiso  ? H
   H233       1.0     0.813287     0.482622     0.423038    Uiso  ? H
   H234       1.0     0.813740     0.516257     0.433948    Uiso  ? H
   H235       1.0     0.796350     0.520189     0.529614    Uiso  ? H
   H236       1.0     0.810997     0.546065     0.548022    Uiso  ? H
   H237       1.0     0.185803     0.452817     0.576681    Uiso  ? H
   H238       1.0     0.184871     0.488988     0.582046    Uiso  ? H
   H239       1.0     0.851417     0.448713     0.619653    Uiso  ? H
   H240       1.0     0.830810     0.476123     0.612508    Uiso  ? H
   C385       1.0     0.572213     0.864176     0.317523    Uiso  ? C
   C386       1.0     0.582380     0.834583     0.321206    Uiso  ? C
   C387       1.0     0.606616     0.824029     0.306664    Uiso  ? C
   H241       1.0     0.619657     0.837465     0.293115    Uiso  ? H
   C388       1.0     0.615759     0.795326     0.310689    Uiso  ? C
   H242       1.0     0.635741     0.789759     0.300660    Uiso  ? H
   C389       1.0     0.599866     0.776708     0.328558    Uiso  ? C
   H243       1.0     0.606990     0.754791     0.329756    Uiso  ? H
   C390       1.0     0.577150     0.786735     0.343497    Uiso  ? C
   C391       1.0     0.568299     0.815976     0.340155    Uiso  ? C
   H244       1.0     0.549254     0.821886     0.350922    Uiso  ? H
   C392       1.0     0.561556     0.767247     0.364140    Uiso  ? C
   C393       1.0     0.504851     0.106428     0.293684    Uiso  ? C
   C394       1.0     0.475082     0.890899     0.284810    Uiso  ? C
   C395       1.0     0.468566     0.885781     0.256093    Uiso  ? C
   H245       1.0     0.484093     0.893079     0.239934    Uiso  ? H
   C396       1.0     0.442353     0.873447     0.247530    Uiso  ? C
   H246       1.0     0.438653     0.872000     0.224939    Uiso  ? H
   C397       1.0     0.422865     0.863998     0.267686    Uiso  ? C
   H247       1.0     0.403738     0.855488     0.260227    Uiso  ? H
   C398       1.0     0.428776     0.868703     0.296770    Uiso  ? C
   C399       1.0     0.454797     0.882661     0.305571    Uiso  ? C
   H248       1.0     0.459698     0.884186     0.328034    Uiso  ? H
   C400       1.0     0.408751     0.857855     0.318468    Uiso  ? C
   C401       1.0     0.535442     0.173965     0.308769    Uiso  ? C
   C402       1.0     0.530453     0.205534     0.311950    Uiso  ? C
   C403       1.0     0.538142     0.223954     0.289408    Uiso  ? C
   H249       1.0     0.546198     0.214880     0.269336    Uiso  ? H
   C404       1.0     0.536379     0.253493     0.292711    Uiso  ? C
   H250       1.0     0.545588     0.267806     0.276232    Uiso  ? H
   C405       1.0     0.525507     0.265301     0.316920    Uiso  ? C
   H251       1.0     0.528140     0.288378     0.321586    Uiso  ? H
   C406       1.0     0.516401     0.248062     0.339666    Uiso  ? C
   C407       1.0     0.519622     0.217866     0.337415    Uiso  ? C
   H252       1.0     0.512269     0.203650     0.353744    Uiso  ? H
   C408       1.0     0.504782     0.260652     0.366928    Uiso  ? C
   C409       1.0     0.608899     0.131586     0.325248    Uiso  ? C
   C410       1.0     0.638236     0.140444     0.335046    Uiso  ? C
   C411       1.0     0.662127     0.140707     0.316030    Uiso  ? C
   H253       1.0     0.659651     0.132893     0.294597    Uiso  ? H
   C412       1.0     0.688726     0.151434     0.325502    Uiso  ? C
   H254       1.0     0.706073     0.152244     0.309291    Uiso  ? H
   C413       1.0     0.692083     0.163221     0.352371    Uiso  ? C
   H255       1.0     0.713031     0.171958     0.359650    Uiso  ? H
   C414       1.0     0.669182     0.162412     0.371606    Uiso  ? C
   C415       1.0     0.642289     0.151032     0.362850    Uiso  ? C
   H256       1.0     0.625625     0.149028     0.378783    Uiso  ? H
   C416       1.0     0.671100     0.176031     0.400610    Uiso  ? C
   C417       1.0     0.535028     0.708719     0.452489    Uiso  ? C
   C418       1.0     0.530973     0.691829     0.479447    Uiso  ? C
   C419       1.0     0.528417     0.661667     0.478721    Uiso  ? C
   H257       1.0     0.531469     0.650235     0.458518    Uiso  ? H
   C420       1.0     0.525844     0.646498     0.504671    Uiso  ? C
   H258       1.0     0.527575     0.623072     0.505232    Uiso  ? H
   C421       1.0     0.524571     0.660488     0.530562    Uiso  ? C
   H259       1.0     0.522855     0.646872     0.549734    Uiso  ? H
   C422       1.0     0.523877     0.690116     0.532005    Uiso  ? C
   C423       1.0     0.527075     0.706262     0.505958    Uiso  ? C
   H260       1.0     0.527509     0.729813     0.507126    Uiso  ? H
   C424       1.0     0.524064     0.704372     0.560165    Uiso  ? C
   C425       1.0     0.487691     0.724027     0.377982    Uiso  ? C
   C426       1.0     0.458656     0.724695     0.365689    Uiso  ? C
   C427       1.0     0.450113     0.703846     0.345634    Uiso  ? C
   H261       1.0     0.462855     0.685079     0.340595    Uiso  ? H
   C428       1.0     0.423974     0.707636     0.330489    Uiso  ? C
   H262       1.0     0.418720     0.691602     0.314729    Uiso  ? H
   C429       1.0     0.405336     0.730417     0.337423    Uiso  ? C
   H263       1.0     0.385930     0.731901     0.325588    Uiso  ? H
   C430       1.0     0.413274     0.751270     0.356658    Uiso  ? C
   C431       1.0     0.439407     0.747445     0.371851    Uiso  ? C
   H264       1.0     0.446406     0.763270     0.387234    Uiso  ? H
   C432       1.0     0.397239     0.778567     0.359748    Uiso  ? C
   C433       1.0     0.590642     0.737545     0.418283    Uiso  ? C
   C434       1.0     0.620284     0.737253     0.428453    Uiso  ? C
   C435       1.0     0.639692     0.716094     0.420141    Uiso  ? C
   H265       1.0     0.634398     0.700386     0.404031    Uiso  ? H
   C436       1.0     0.667485     0.716216     0.431137    Uiso  ? C
   H266       1.0     0.683913     0.702140     0.422360    Uiso  ? H
   C437       1.0     0.675007     0.735790     0.452790    Uiso  ? C
   H267       1.0     0.696241     0.733574     0.462637    Uiso  ? H
   C438       1.0     0.655600     0.757922     0.461151    Uiso  ? C
   C439       1.0     0.629192     0.759666     0.446946    Uiso  ? C
   H268       1.0     0.614423     0.776001     0.453432    Uiso  ? H
   C440       1.0     0.665830     0.778520     0.483667    Uiso  ? C
   C441       1.0     0.346971     0.809404     0.397638    Uiso  ? C
   C442       1.0     0.331110     0.794980     0.421771    Uiso  ? C
   C443       1.0     0.309073     0.775902     0.416441    Uiso  ? C
   H269       1.0     0.304353     0.769695     0.394268    Uiso  ? H
   C444       1.0     0.293584     0.761648     0.438418    Uiso  ? C
   H270       1.0     0.277311     0.745992     0.433330    Uiso  ? H
   C445       1.0     0.300641     0.767973     0.466711    Uiso  ? C
   H271       1.0     0.290038     0.757847     0.484101    Uiso  ? H
   C446       1.0     0.323239     0.786737     0.473019    Uiso  ? C
   C447       1.0     0.337923     0.800117     0.449996    Uiso  ? C
   H272       1.0     0.354677     0.816201     0.454935    Uiso  ? H
   C448       1.0     0.331190     0.793616     0.503065    Uiso  ? C
   C449       1.0     0.336422     0.867994     0.368408    Uiso  ? C
   C450       1.0     0.314174     0.889415     0.375368    Uiso  ? C
   C451       1.0     0.287697     0.889523     0.361497    Uiso  ? C
   H273       1.0     0.281276     0.872694     0.346555    Uiso  ? H
   C452       1.0     0.268044     0.116597     0.367749    Uiso  ? C
   H274       1.0     0.248603     0.116493     0.355971    Uiso  ? H
   C453       1.0     0.273048     0.136779     0.388955    Uiso  ? C
   H275       1.0     0.256631     0.152396     0.393937    Uiso  ? H
   C454       1.0     0.299701     0.136648     0.402919    Uiso  ? C
   C455       1.0     0.321023     0.116912     0.395003    Uiso  ? C
   H276       1.0     0.341686     0.117238     0.406862    Uiso  ? H
   C456       1.0     0.306477     0.157712     0.425491    Uiso  ? C
   C457       1.0     0.661109     0.766738     0.553874    Uiso  ? C
   C458       1.0     0.648884     0.741337     0.569391    Uiso  ? C
   C459       1.0     0.664844     0.715879     0.572647    Uiso  ? C
   H277       1.0     0.686376     0.714930     0.564780    Uiso  ? H
   C460       1.0     0.652211     0.692066     0.585385    Uiso  ? C
   H278       1.0     0.663023     0.671626     0.586646    Uiso  ? H
   C461       1.0     0.624094     0.693215     0.595441    Uiso  ? C
   H279       1.0     0.615284     0.674665     0.606967    Uiso  ? H
   C462       1.0     0.608150     0.717739     0.592726    Uiso  ? C
   C463       1.0     0.620653     0.741636     0.579391    Uiso  ? C
   H280       1.0     0.607540     0.760740     0.576966    Uiso  ? H
   C464       1.0     0.577796     0.719240     0.601424    Uiso  ? C
   C465       1.0     0.701200     0.854337     0.498458    Uiso  ? C
   C466       1.0     0.715905     0.878735     0.485024    Uiso  ? C
   C467       1.0     0.744495     0.875148     0.474572    Uiso  ? C
   H281       1.0     0.756760     0.855843     0.477980    Uiso  ? H
   C468       1.0     0.757849     0.102829     0.458428    Uiso  ? C
   H282       1.0     0.777887     0.894806     0.449695    Uiso  ? H
   C469       1.0     0.743208     0.128859     0.453310    Uiso  ? C
   H283       1.0     0.753356     0.146515     0.442539    Uiso  ? H
   C470       1.0     0.714698     0.132348     0.464308    Uiso  ? C
   C471       1.0     0.702037     0.109589     0.479672    Uiso  ? C
   H284       1.0     0.680275     0.111106     0.487819    Uiso  ? H
   C472       1.0     0.698968     0.159128     0.459901    Uiso  ? C
   C473       1.0     0.635919     0.249703     0.439683    Uiso  ? C
   C474       1.0     0.618510     0.274919     0.433066    Uiso  ? C
   C475       1.0     0.631793     0.299857     0.422087    Uiso  ? C
   H285       1.0     0.654887     0.302387     0.422022    Uiso  ? H
   C476       1.0     0.615181     0.322032     0.410154    Uiso  ? C
   H286       1.0     0.626095     0.339939     0.400277    Uiso  ? H
   C477       1.0     0.585681     0.320039     0.408563    Uiso  ? C
   H287       1.0     0.574689     0.336952     0.397047    Uiso  ? H
   C478       1.0     0.571925     0.295373     0.419555    Uiso  ? C
   C479       1.0     0.587622     0.273692     0.433592    Uiso  ? C
   H288       1.0     0.577562     0.254842     0.442279    Uiso  ? H
   C480       1.0     0.540238     0.293777     0.418794    Uiso  ? C
   O217       1.0     0.552106     0.873432     0.333502    Uiso  ? O
   O218       1.0     0.583932     0.881035     0.298619    Uiso  ? O
   O219       1.0     0.507187     0.122627     0.315345    Uiso  ? O
   O220       1.0     0.525537     0.895431     0.278816    Uiso  ? O
   O221       1.0     0.520030     0.155459     0.322557    Uiso  ? O
   O222       1.0     0.556872     0.165399     0.293875    Uiso  ? O
   O223       1.0     0.586817     0.140219     0.339404    Uiso  ? O
   O224       1.0     0.605779     0.118091     0.301353    Uiso  ? O
   O225       1.0     0.542491     0.735015     0.452612    Uiso  ? O
   O226       1.0     0.529336     0.696739     0.429045    Uiso  ? O
   O227       1.0     0.493150     0.737768     0.400625    Uiso  ? O
   O228       1.0     0.508356     0.711229     0.365191    Uiso  ? O
   O229       1.0     0.548113     0.779296     0.384453    Uiso  ? O
   O230       1.0     0.565754     0.739622     0.364572    Uiso  ? O
   O231       1.0     0.569968     0.747634     0.433905    Uiso  ? O
   O232       1.0     0.585058     0.726334     0.393351    Uiso  ? O
   O233       1.0     0.362834     0.831443     0.401422    Uiso  ? O
   O234       1.0     0.346473     0.797572     0.372536    Uiso  ? O
   O235       1.0     0.357969     0.863895     0.385598    Uiso  ? O
   O236       1.0     0.333980     0.852731     0.345892    Uiso  ? O
   O237       1.0     0.406264     0.870084     0.343007    Uiso  ? O
   O238       1.0     0.394535     0.834757     0.313290    Uiso  ? O
   O239       1.0     0.410424     0.800678     0.367867    Uiso  ? O
   O240       1.0     0.370280     0.779388     0.353155    Uiso  ? O
   O241       1.0     0.647628     0.790592     0.553851    Uiso  ? O
   O242       1.0     0.683342     0.763182     0.538117    Uiso  ? O
   O243       1.0     0.654432     0.803029     0.485475    Uiso  ? O
   O244       1.0     0.684106     0.770430     0.502442    Uiso  ? O
   O245       1.0     0.680116     0.859178     0.515229    Uiso  ? O
   O246       1.0     0.711766     0.829433     0.497133    Uiso  ? O
   O247       1.0     0.675823     0.855512     0.548849    Uiso  ? O
   O248       1.0     0.697626     0.818177     0.569213    Uiso  ? O
   O249       1.0     0.676587     0.165049     0.475265    Uiso  ? O
   O250       1.0     0.706829     0.177206     0.440866    Uiso  ? O
   O251       1.0     0.648281     0.181271     0.414132    Uiso  ? O
   O252       1.0     0.695281     0.183915     0.410760    Uiso  ? O
   O253       1.0     0.627464     0.231854     0.458355    Uiso  ? O
   O254       1.0     0.659792     0.246275     0.427550    Uiso  ? O
   O255       1.0     0.671194     0.196224     0.494358    Uiso  ? O
   O256       1.0     0.706002     0.226806     0.481068    Uiso  ? O
   O257       1.0     0.504060     0.765256     0.637322    Uiso  ? O
   O258       1.0     0.526450     0.729708     0.658337    Uiso  ? O
   O259       1.0     0.482631     0.737414     0.583920    Uiso  ? O
   O260       1.0     0.480902     0.701262     0.614561    Uiso  ? O
   O261       1.0     0.511440     0.728686     0.563926    Uiso  ? O
   O262       1.0     0.534686     0.690850     0.582260    Uiso  ? O
   O263       1.0     0.565838     0.743603     0.602612    Uiso  ? O
   O264       1.0     0.562563     0.696533     0.604064    Uiso  ? O
   O265       1.0     0.540807     0.127034     0.384797    Uiso  ? O
   O266       1.0     0.504505     0.791247     0.438729    Uiso  ? O
   O267       1.0     0.432779     0.854213     0.402395    Uiso  ? O
   O268       1.0     0.608238     0.840236     0.521662    Uiso  ? O
   O269       1.0     0.605916     0.167503     0.466325    Uiso  ? O
   O270       1.0     0.531473     0.797319     0.583809    Uiso  ? O
   Zn49       1.0     0.545734     0.121812     0.340187    Uiso  ? Zn
   Zn50       1.0     0.565256     0.123281     0.278970    Uiso  ? Zn
   Zn51       1.0     0.527902     0.759348     0.419215    Uiso  ? Zn
   Zn52       1.0     0.543152     0.705482     0.388042    Uiso  ? Zn
   Zn53       1.0     0.397950     0.843086     0.376683    Uiso  ? Zn
   Zn54       1.0     0.358087     0.819174     0.332879    Uiso  ? Zn
   Zn55       1.0     0.650893     0.825331     0.524269    Uiso  ? Zn
   Zn56       1.0     0.705409     0.799621     0.528792    Uiso  ? Zn
   Zn57       1.0     0.643062     0.189791     0.457974    Uiso  ? Zn
   Zn58       1.0     0.693230     0.220509     0.440080    Uiso  ? Zn
   Zn59       1.0     0.521951     0.756487     0.597889    Uiso  ? Zn
   Zn60       1.0     0.522511     0.698283     0.625027    Uiso  ? Zn
   C481       1.0     0.458880     0.153631     0.712472    Uiso  ? C
   C482       1.0     0.455706     0.186155     0.713320    Uiso  ? C
   C483       1.0     0.447046     0.199329     0.739756    Uiso  ? C
   H289       1.0     0.443799     0.185868     0.758498    Uiso  ? H
   C484       1.0     0.442886     0.229470     0.740189    Uiso  ? C
   H290       1.0     0.438964     0.239920     0.760706    Uiso  ? H
   C485       1.0     0.444647     0.244817     0.714271    Uiso  ? C
   H291       1.0     0.442021     0.268325     0.716157    Uiso  ? H
   C486       1.0     0.451973     0.231748     0.687977    Uiso  ? C
   C487       1.0     0.457679     0.202516     0.687932    Uiso  ? C
   H292       1.0     0.463562     0.193313     0.667882    Uiso  ? H
   C488       1.0     0.452392     0.248303     0.661237    Uiso  ? C
   C489       1.0     0.512913     0.111266     0.713513    Uiso  ? C
   C490       1.0     0.542583     0.119487     0.720019    Uiso  ? C
   C491       1.0     0.556051     0.110230     0.745499    Uiso  ? C
   H293       1.0     0.543526     0.892375     0.760957    Uiso  ? H
   C492       1.0     0.585827     0.114986     0.748527    Uiso  ? C
   H294       1.0     0.597194     0.106656     0.767529    Uiso  ? H
   C493       1.0     0.601810     0.128860     0.727568    Uiso  ? C
   H295       1.0     0.624472     0.131262     0.730907    Uiso  ? H
   C494       1.0     0.587792     0.140945     0.703400    Uiso  ? C
   C495       1.0     0.558199     0.135497     0.699293    Uiso  ? C
   H296       1.0     0.548762     0.141030     0.679086    Uiso  ? H
   C496       1.0     0.604567     0.157155     0.681521    Uiso  ? C
   C497       1.0     0.480099     0.841621     0.709684    Uiso  ? C
   C498       1.0     0.491421     0.812565     0.711621    Uiso  ? C
   C499       1.0     0.497390     0.799597     0.738385    Uiso  ? C
   H297       1.0     0.492588     0.809915     0.758292    Uiso  ? H
   C500       1.0     0.509883     0.772253     0.738980    Uiso  ? C
   H298       1.0     0.514086     0.762217     0.759014    Uiso  ? H
   C501       1.0     0.514872     0.757189     0.713356    Uiso  ? C
   H299       1.0     0.523866     0.735955     0.714763    Uiso  ? H
   C502       1.0     0.509211     0.769378     0.687116    Uiso  ? C
   C503       1.0     0.497194     0.796962     0.686163    Uiso  ? C
   H300       1.0     0.493258     0.807475     0.666576    Uiso  ? H
   C504       1.0     0.512398     0.752941     0.659845    Uiso  ? C
   C505       1.0     0.407873     0.886226     0.678382    Uiso  ? C
   C506       1.0     0.379102     0.876942     0.669183    Uiso  ? C
   C507       1.0     0.357024     0.873336     0.688811    Uiso  ? C
   H301       1.0     0.360261     0.880094     0.710010    Uiso  ? H
   C508       1.0     0.332167     0.858001     0.681021    Uiso  ? C
   H302       1.0     0.315864     0.855677     0.696420    Uiso  ? H
   C509       1.0     0.329343     0.847626     0.652822    Uiso  ? C
   H303       1.0     0.311837     0.832947     0.645883    Uiso  ? H
   C510       1.0     0.351032     0.852523     0.632226    Uiso  ? C
   C511       1.0     0.375621     0.867389     0.640348    Uiso  ? C
   H304       1.0     0.393984     0.868140     0.625989    Uiso  ? H
   C512       1.0     0.349363     0.838876     0.603056    Uiso  ? C
   C513       1.0     0.476297     0.302151     0.568696    Uiso  ? C
   C514       1.0     0.483773     0.321369     0.544088    Uiso  ? C
   C515       1.0     0.484192     0.350845     0.547986    Uiso  ? C
   H305       1.0     0.478187     0.360072     0.567628    Uiso  ? H
   C516       1.0     0.489529     0.369208     0.524662    Uiso  ? C
   H306       1.0     0.488174     0.392139     0.527832    Uiso  ? H
   C517       1.0     0.493103     0.357913     0.497462    Uiso  ? C
   H307       1.0     0.495854     0.372913     0.479924    Uiso  ? H
   C518       1.0     0.492321     0.327876     0.492788    Uiso  ? C
   C519       1.0     0.487867     0.309466     0.516230    Uiso  ? C
   H308       1.0     0.486003     0.286514     0.512107    Uiso  ? H
   C520       1.0     0.493444     0.315424     0.463915    Uiso  ? C
   C521       1.0     0.504808     0.269786     0.628551    Uiso  ? C
   C522       1.0     0.533475     0.270662     0.642490    Uiso  ? C
   C523       1.0     0.544061     0.295953     0.654701    Uiso  ? C
   H309       1.0     0.530687     0.314930     0.655320    Uiso  ? H
   C524       1.0     0.571566     0.297154     0.666434    Uiso  ? C
   H310       1.0     0.579921     0.318119     0.674153    Uiso  ? H
   C525       1.0     0.589205     0.273297     0.664810    Uiso  ? C
   H311       1.0     0.611429     0.274203     0.671898    Uiso  ? H
   C526       1.0     0.579345     0.247875     0.652539    Uiso  ? C
   C527       1.0     0.551185     0.246715     0.641510    Uiso  ? C
   H312       1.0     0.544072     0.226482     0.632181    Uiso  ? H
   C528       1.0     0.598217     0.222264     0.649609    Uiso  ? C
   C529       1.0     0.402879     0.257417     0.586002    Uiso  ? C
   C530       1.0     0.373652     0.256644     0.573491    Uiso  ? C
   C531       1.0     0.351369     0.272797     0.585999    Uiso  ? C
   H313       1.0     0.356350     0.285008     0.604796    Uiso  ? H
   C532       1.0     0.322977     0.269650     0.576337    Uiso  ? C
   H314       1.0     0.304862     0.279190     0.587561    Uiso  ? H
   C533       1.0     0.317857     0.253762     0.551540    Uiso  ? C
   H315       1.0     0.296054     0.253708     0.542638    Uiso  ? H
   C534       1.0     0.340229     0.238861     0.537157    Uiso  ? C
   C535       1.0     0.367840     0.239293     0.549169    Uiso  ? C
   H316       1.0     0.384931     0.227779     0.539172    Uiso  ? H
   C536       1.0     0.334343     0.222543     0.510953    Uiso  ? C
   C537       1.0     0.673404     0.201670     0.605571    Uiso  ? C
   C538       1.0     0.692652     0.211481     0.582361    Uiso  ? C
   C539       1.0     0.721673     0.220078     0.588411    Uiso  ? C
   H317       1.0     0.729373     0.223737     0.610363    Uiso  ? H
   C540       1.0     0.739531     0.228376     0.565758    Uiso  ? C
   H318       1.0     0.761113     0.235831     0.568958    Uiso  ? H
   C541       1.0     0.730719     0.224762     0.537776    Uiso  ? C
   H319       1.0     0.745611     0.228364     0.520583    Uiso  ? H
   C542       1.0     0.702228     0.216472     0.530942    Uiso  ? C
   C543       1.0     0.683587     0.209700     0.553181    Uiso  ? C
   H320       1.0     0.660892     0.204277     0.549614    Uiso  ? H
   C544       1.0     0.693069     0.212941     0.500711    Uiso  ? C
   C545       1.0     0.668574     0.135655     0.632546    Uiso  ? C
   C546       1.0     0.686041     0.110046     0.625349    Uiso  ? C
   C547       1.0     0.710737     0.103985     0.641435    Uiso  ? C
   H321       1.0     0.716062     0.117518     0.659858    Uiso  ? H
   C548       1.0     0.726688     0.875211     0.636133    Uiso  ? C
   H322       1.0     0.746172     0.872414     0.649034    Uiso  ? H
   C549       1.0     0.718607     0.856522     0.613432    Uiso  ? C
   H323       1.0     0.731033     0.837053     0.610333    Uiso  ? H
   C550       1.0     0.694862     0.863018     0.595387    Uiso  ? C
   C551       1.0     0.678475     0.886930     0.601284    Uiso  ? C
   H324       1.0     0.660095     0.893204     0.587726    Uiso  ? H
   C552       1.0     0.688971     0.844546     0.570274    Uiso  ? C
   C553       1.0     0.343017     0.233645     0.438362    Uiso  ? C
   C554       1.0     0.355669     0.256303     0.420334    Uiso  ? C
   C555       1.0     0.339113     0.272535     0.400887    Uiso  ? C
   H325       1.0     0.316156     0.266291     0.397593    Uiso  ? H
   C556       1.0     0.351962     0.295109     0.386401    Uiso  ? C
   H326       1.0     0.338825     0.307407     0.372461    Uiso  ? H
   C557       1.0     0.381774     0.301737     0.389592    Uiso  ? C
   H327       1.0     0.391391     0.320153     0.378390    Uiso  ? H
   C558       1.0     0.398116     0.284946     0.408020    Uiso  ? C
   C559       1.0     0.384701     0.262277     0.423139    Uiso  ? C
   H328       1.0     0.397227     0.249870     0.437711    Uiso  ? H
   C560       1.0     0.429364     0.289538     0.410809    Uiso  ? C
   C561       1.0     0.297718     0.148348     0.494648    Uiso  ? C
   C562       1.0     0.286293     0.121214     0.507055    Uiso  ? C
   C563       1.0     0.256017     0.115041     0.506353    Uiso  ? C
   H329       1.0     0.242407     0.130779     0.496740    Uiso  ? H
   C564       1.0     0.244370     0.883836     0.518161    Uiso  ? C
   H330       1.0     0.221446     0.880945     0.517366    Uiso  ? H
   C565       1.0     0.262894     0.863527     0.530162    Uiso  ? C
   H331       1.0     0.253294     0.843797     0.537264    Uiso  ? H
   C566       1.0     0.292792     0.869193     0.531090    Uiso  ? C
   C567       1.0     0.303886     0.895437     0.520515    Uiso  ? C
   H332       1.0     0.328469     0.105652     0.521956    Uiso  ? H
   C568       1.0     0.311841     0.846352     0.542391    Uiso  ? C
   C569       1.0     0.373920     0.757454     0.567910    Uiso  ? C
   C570       1.0     0.391084     0.733153     0.578034    Uiso  ? C
   C571       1.0     0.378185     0.706079     0.584054    Uiso  ? C
   H333       1.0     0.353837     0.702374     0.582864    Uiso  ? H
   C572       1.0     0.395135     0.682959     0.593132    Uiso  ? C
   H334       1.0     0.384308     0.662780     0.597833    Uiso  ? H
   C573       1.0     0.424682     0.686192     0.595801    Uiso  ? C
   H335       1.0     0.436417     0.668282     0.603885    Uiso  ? H
   C574       1.0     0.437513     0.713768     0.590293    Uiso  ? C
   C575       1.0     0.420561     0.736752     0.582013    Uiso  ? C
   H336       1.0     0.431308     0.756854     0.577905    Uiso  ? H
   C576       1.0     0.468216     0.717631     0.596729    Uiso  ? C
   O271       1.0     0.471759     0.141393     0.691652    Uiso  ? O
   O272       1.0     0.448318     0.138486     0.732943    Uiso  ? O
   O273       1.0     0.500429     0.121576     0.690937    Uiso  ? O
   O274       1.0     0.497100     0.891453     0.731715    Uiso  ? O
   O275       1.0     0.470924     0.851646     0.685694    Uiso  ? O
   O276       1.0     0.481892     0.858517     0.731309    Uiso  ? O
   O277       1.0     0.424869     0.107434     0.662927    Uiso  ? O
   O278       1.0     0.416946     0.878752     0.702592    Uiso  ? O
   O279       1.0     0.468712     0.276663     0.563217    Uiso  ? O
   O280       1.0     0.477827     0.311090     0.594547    Uiso  ? O
   O281       1.0     0.492948     0.245648     0.622469    Uiso  ? O
   O282       1.0     0.491078     0.294125     0.623435    Uiso  ? O
   O283       1.0     0.459264     0.236044     0.638257    Uiso  ? O
   O284       1.0     0.445852     0.274313     0.660736    Uiso  ? O
   O285       1.0     0.416590     0.234063     0.587765    Uiso  ? O
   O286       1.0     0.412585     0.281355     0.595413    Uiso  ? O
   O287       1.0     0.646698     0.200669     0.601175    Uiso  ? O
   O288       1.0     0.683703     0.193457     0.629730    Uiso  ? O
   O289       1.0     0.641645     0.135552     0.625873    Uiso  ? O
   O290       1.0     0.680782     0.158777     0.641388    Uiso  ? O
   O291       1.0     0.592493     0.167376     0.659450    Uiso  ? O
   O292       1.0     0.631871     0.158727     0.684011    Uiso  ? O
   O293       1.0     0.587830     0.197759     0.644270    Uiso  ? O
   O294       1.0     0.625097     0.224062     0.654517    Uiso  ? O
   O295       1.0     0.357248     0.222303     0.459179    Uiso  ? O
   O296       1.0     0.317713     0.224511     0.432774    Uiso  ? O
   O297       1.0     0.353876     0.216480     0.493274    Uiso  ? O
   O298       1.0     0.308023     0.217410     0.504190    Uiso  ? O
   O299       1.0     0.324373     0.155435     0.499886    Uiso  ? O
   O300       1.0     0.281881     0.162932     0.477142    Uiso  ? O
   O301       1.0     0.332859     0.164300     0.430325    Uiso  ? O
   O302       1.0     0.286690     0.166317     0.442125    Uiso  ? O
   O303       1.0     0.337139     0.852323     0.550266    Uiso  ? O
   O304       1.0     0.302265     0.820537     0.543381    Uiso  ? O
   O305       1.0     0.359189     0.850761     0.580364    Uiso  ? O
   O306       1.0     0.336529     0.814872     0.600412    Uiso  ? O
   O307       1.0     0.384046     0.783224     0.570465    Uiso  ? O
   O308       1.0     0.348751     0.753760     0.560066    Uiso  ? O
   O309       1.0     0.355010     0.804103     0.508838    Uiso  ? O
   O310       1.0     0.313512     0.788305     0.523468    Uiso  ? O
   O311       1.0     0.496331     0.244971     0.387417    Uiso  ? O
   O312       1.0     0.505519     0.287987     0.370654    Uiso  ? O
   O313       1.0     0.525825     0.280120     0.437393    Uiso  ? O
   O314       1.0     0.527356     0.303603     0.396811    Uiso  ? O
   O315       1.0     0.500319     0.288713     0.460281    Uiso  ? O
   O316       1.0     0.484136     0.329974     0.442561    Uiso  ? O
   O317       1.0     0.443092     0.272745     0.427447    Uiso  ? O
   O318       1.0     0.442641     0.305828     0.393503    Uiso  ? O
   O319       1.0     0.475479     0.891114     0.627681    Uiso  ? O
   O320       1.0     0.474274     0.209814     0.564151    Uiso  ? O
   O321       1.0     0.591466     0.158605     0.584457    Uiso  ? O
   O322       1.0     0.385505     0.152168     0.469791    Uiso  ? O
   O323       1.0     0.407510     0.835034     0.529193    Uiso  ? O
   O324       1.0     0.481469     0.220956     0.449983    Uiso  ? O
   Zn61       1.0     0.465130     0.894185     0.671797    Uiso  ? Zn
   Zn62       1.0     0.449507     0.889196     0.732445    Uiso  ? Zn
   Zn63       1.0     0.459333     0.242628     0.591575    Uiso  ? Zn
   Zn64       1.0     0.445873     0.297452     0.622072    Uiso  ? Zn
   Zn65       1.0     0.616109     0.171659     0.621080    Uiso  ? Zn
   Zn66       1.0     0.655332     0.189922     0.664632    Uiso  ? Zn
   Zn67       1.0     0.347804     0.177577     0.470319    Uiso  ? Zn
   Zn68       1.0     0.292710     0.205905     0.464372    Uiso  ? Zn
   Zn69       1.0     0.370149     0.820269     0.548329    Uiso  ? Zn
   Zn70       1.0     0.321096     0.786692     0.568111    Uiso  ? Zn
   Zn71       1.0     0.484731     0.259997     0.428768    Uiso  ? Zn
   Zn72       1.0     0.484637     0.318534     0.398269    Uiso  ? Zn
   H337       1.0     0.469659     0.189864     0.568084    Uiso  ? H
   H338       1.0     0.491428     0.214017     0.552073    Uiso  ? H
   H339       1.0     0.500274     0.807316     0.425860    Uiso  ? H
   H340       1.0     0.493936     0.788700     0.456703    Uiso  ? H
   H341       1.0     0.519597     0.813076     0.588035    Uiso  ? H
   H342       1.0     0.551266     0.800042     0.577873    Uiso  ? H
   H343       1.0     0.604140     0.859876     0.519303    Uiso  ? H
   H344       1.0     0.593105     0.826851     0.522110    Uiso  ? H
   H345       1.0     0.478168     0.220531     0.470339    Uiso  ? H
   H346       1.0     0.485479     0.202271     0.439865    Uiso  ? H
   H347       1.0     0.556816     0.123772     0.397436    Uiso  ? H
   H348       1.0     0.521495     0.129181     0.392204    Uiso  ? H
   H349       1.0     0.590010     0.179721     0.471247    Uiso  ? H
   H350       1.0     0.601850     0.147163     0.461230    Uiso  ? H
   H351       1.0     0.403392     0.160275     0.476008    Uiso  ? H
   H352       1.0     0.383559     0.132723     0.466312    Uiso  ? H
   H353       1.0     0.435760     0.841715     0.419102    Uiso  ? H
   H354       1.0     0.449636     0.862316     0.392455    Uiso  ? H
   H355       1.0     0.422515     0.821972     0.527065    Uiso  ? H
   H356       1.0     0.408019     0.853781     0.520263    Uiso  ? H
   H357       1.0     0.571968     0.149545     0.586474    Uiso  ? H
   H358       1.0     0.599613     0.157755     0.565566    Uiso  ? H
   H359       1.0     0.464109     0.107111     0.613986    Uiso  ? H
   H360       1.0     0.496028     0.890526     0.624973    Uiso  ? H
   C577       1.0     0.499731     0.365602     0.248037    Uiso  ? C
   C578       1.0     0.529547     0.362372     0.257380    Uiso  ? C
   C579       1.0     0.538799     0.336583     0.270472    Uiso  ? C
   H361       1.0     0.525365     0.319184     0.273335    Uiso  ? H
   C580       1.0     0.568396     0.333411     0.277840    Uiso  ? C
   H362       1.0     0.576660     0.313018     0.287221    Uiso  ? H
   C581       1.0     0.587083     0.355871     0.273244    Uiso  ? C
   H363       1.0     0.609101     0.354060     0.280035    Uiso  ? H
   C582       1.0     0.577996     0.380659     0.259933    Uiso  ? C
   C583       1.0     0.549351     0.384274     0.252580    Uiso  ? C
   H364       1.0     0.541683     0.404142     0.244105    Uiso  ? H
   C584       1.0     0.598111     0.405035     0.254530    Uiso  ? C
   C585       1.0     0.434403     0.396316     0.288897    Uiso  ? C
   C586       1.0     0.432393     0.419627     0.310603    Uiso  ? C
   C587       1.0     0.426340     0.414015     0.339464    Uiso  ? C
   H365       1.0     0.420628     0.392253     0.345634    Uiso  ? H
   C588       1.0     0.429212     0.435747     0.360633    Uiso  ? C
   H366       1.0     0.427313     0.430518     0.383485    Uiso  ? H
   C589       1.0     0.437461     0.463304     0.353043    Uiso  ? C
   H367       1.0     0.440182     0.478821     0.370575    Uiso  ? H
   C590       1.0     0.444379     0.469197     0.324454    Uiso  ? C
   C591       1.0     0.440163     0.447957     0.303245    Uiso  ? C
   H368       1.0     0.444072     0.453955     0.280856    Uiso  ? H
   C592       1.0     0.453551     0.498406     0.315204    Uiso  ? C
   C593       1.0     0.397458     0.352589     0.214813    Uiso  ? C
   C594       1.0     0.370153     0.345285     0.199377    Uiso  ? C
   C595       1.0     0.349293     0.328123     0.212583    Uiso  ? C
   H369       1.0     0.353300     0.318033     0.233562    Uiso  ? H
   C596       1.0     0.323905     0.321624     0.198765    Uiso  ? C
   H370       1.0     0.306891     0.310645     0.208563    Uiso  ? H
   C597       1.0     0.319103     0.331830     0.170614    Uiso  ? C
   H371       1.0     0.298159     0.326723     0.160302    Uiso  ? H
   C598       1.0     0.338748     0.351002     0.157781    Uiso  ? C
   C599       1.0     0.365005     0.356159     0.171625    Uiso  ? C
   H372       1.0     0.381467     0.370134     0.162230    Uiso  ? H
   C600       1.0     0.331203     0.367754     0.132013    Uiso  ? C
   C601       1.0     0.464339     0.322818     0.210998    Uiso  ? C
   C602       1.0     0.475597     0.299808     0.191233    Uiso  ? C
   C603       1.0     0.484407     0.273512     0.201787    Uiso  ? C
   H373       1.0     0.482472     0.268278     0.224086    Uiso  ? H
   C604       1.0     0.495491     0.252321     0.183330    Uiso  ? C
   H374       1.0     0.502286     0.232139     0.192245    Uiso  ? H
   C605       1.0     0.497813     0.257026     0.154358    Uiso  ? C
   H375       1.0     0.506910     0.240337     0.140495    Uiso  ? H
   C606       1.0     0.491252     0.283765     0.143477    Uiso  ? C
   C607       1.0     0.479837     0.305800     0.162099    Uiso  ? C
   H376       1.0     0.475039     0.326617     0.153686    Uiso  ? H
   C608       1.0     0.492751     0.289800     0.112102    Uiso  ? C
   C609       1.0     0.667883     0.489267     0.230482    Uiso  ? C
   C610       1.0     0.686621     0.511554     0.218494    Uiso  ? C
   C611       1.0     0.716506     0.511603     0.224567    Uiso  ? C
   H377       1.0     0.725520     0.498118     0.239975    Uiso  ? H
   C612       1.0     0.734798     0.530904     0.212156    Uiso  ? C
   H378       1.0     0.756391     0.532569     0.220248    Uiso  ? H
   C613       1.0     0.724347     0.549183     0.191066    Uiso  ? C
   H379       1.0     0.739793     0.562159     0.179722    Uiso  ? H
   C614       1.0     0.695727     0.549222     0.183944    Uiso  ? C
   C615       1.0     0.676469     0.530818     0.197509    Uiso  ? C
   H380       1.0     0.654052     0.530073     0.190426    Uiso  ? H
   C616       1.0     0.685715     0.567651     0.161121    Uiso  ? C
   C617       1.0     0.604919     0.471768     0.283298    Uiso  ? C
   C618       1.0     0.587465     0.485389     0.307264    Uiso  ? C
   C619       1.0     0.597364     0.484742     0.336150    Uiso  ? C
   H381       1.0     0.617125     0.474708     0.341519    Uiso  ? H
   C620       1.0     0.580206     0.495680     0.358413    Uiso  ? C
   H382       1.0     0.587729     0.495532     0.380471    Uiso  ? H
   C621       1.0     0.552568     0.506809     0.351946    Uiso  ? C
   H383       1.0     0.540517     0.514743     0.370186    Uiso  ? H
   C622       1.0     0.543717     0.509642     0.322798    Uiso  ? C
   C623       1.0     0.561438     0.499284     0.300580    Uiso  ? C
   H384       1.0     0.555175     0.500770     0.277488    Uiso  ? H
   C624       1.0     0.516553     0.524590     0.316290    Uiso  ? C
   C625       1.0     0.672481     0.423016     0.207551    Uiso  ? C
   C626       1.0     0.691228     0.411247     0.185430    Uiso  ? C
   C627       1.0     0.720219     0.405428     0.191115    Uiso  ? C
   H385       1.0     0.729512     0.408656     0.213090    Uiso  ? H
   C628       1.0     0.739005     0.395732     0.169541    Uiso  ? C
   H386       1.0     0.761781     0.393842     0.174067    Uiso  ? H
   C629       1.0     0.728714     0.393238     0.141321    Uiso  ? C
   H387       1.0     0.744202     0.389729     0.124945    Uiso  ? H
   C630       1.0     0.700259     0.399383     0.135203    Uiso  ? C
   C631       1.0     0.681413     0.407187     0.157265    Uiso  ? C
   H388       1.0     0.659030     0.412056     0.152895    Uiso  ? H
   C632       1.0     0.690614     0.399782     0.104622    Uiso  ? C
   C633       1.0     0.484811     0.600298     0.281745    Uiso  ? C
   C634       1.0     0.494432     0.629171     0.272246    Uiso  ? C
   C635       1.0     0.512421     0.645762     0.289593    Uiso  ? C
   H389       1.0     0.520028     0.637891     0.309081    Uiso  ? H
   C636       1.0     0.523265     0.671162     0.280285    Uiso  ? C
   H390       1.0     0.538556     0.682470     0.293424    Uiso  ? H
   C637       1.0     0.515780     0.681493     0.253413    Uiso  ? C
   H391       1.0     0.524758     0.701225     0.245271    Uiso  ? H
   C638       1.0     0.497379     0.666047     0.235342    Uiso  ? C
   C639       1.0     0.486774     0.640017     0.245149    Uiso  ? C
   H392       1.0     0.472174     0.628217     0.231857    Uiso  ? H
   C640       1.0     0.490906     0.675848     0.205492    Uiso  ? C
   C641       1.0     0.413057     0.548339     0.292084    Uiso  ? C
   C642       1.0     0.382633     0.549817     0.287039    Uiso  ? C
   C643       1.0     0.363098     0.546490     0.309482    Uiso  ? C
   H393       1.0     0.370845     0.542008     0.331470    Uiso  ? H
   C644       1.0     0.333688     0.546535     0.304076    Uiso  ? C
   H394       1.0     0.319818     0.542714     0.322403    Uiso  ? H
   C645       1.0     0.322754     0.549731     0.276230    Uiso  ? C
   H395       1.0     0.299653     0.552063     0.273949    Uiso  ? H
   C646       1.0     0.342145     0.554445     0.253340    Uiso  ? C
   C647       1.0     0.371860     0.553206     0.258664    Uiso  ? C
   H396       1.0     0.388535     0.558057     0.242756    Uiso  ? H
   C648       1.0     0.331538     0.560609     0.224136    Uiso  ? C
   C649       1.0     0.694611     0.453392     0.859239    Uiso  ? C
   C650       1.0     0.708147     0.481634     0.863646    Uiso  ? C
   C651       1.0     0.737208     0.485240     0.856971    Uiso  ? C
   H397       1.0     0.748534     0.467894     0.847966    Uiso  ? H
   C652       1.0     0.750429     0.511152     0.860889    Uiso  ? C
   H398       1.0     0.772522     0.513965     0.854899    Uiso  ? H
   C653       1.0     0.735148     0.533662     0.873040    Uiso  ? C
   H399       1.0     0.745038     0.554642     0.876614    Uiso  ? H
   C654       1.0     0.705501     0.530812     0.879876    Uiso  ? C
   C655       1.0     0.692362     0.504524     0.874711    Uiso  ? C
   H400       1.0     0.670080     0.502076     0.879352    Uiso  ? H
   C656       1.0     0.689716     0.555772     0.892004    Uiso  ? C
   C657       1.0     0.645440     0.353704     0.848093    Uiso  ? C
   C658       1.0     0.629607     0.326373     0.848662    Uiso  ? C
   C659       1.0     0.645040     0.300345     0.847399    Uiso  ? C
   H401       1.0     0.667724     0.299774     0.843194    Uiso  ? H
   C660       1.0     0.630496     0.274118     0.851684    Uiso  ? C
   H402       1.0     0.641593     0.253597     0.851177    Uiso  ? H
   C661       1.0     0.600126     0.273978     0.853960    Uiso  ? C
   H403       1.0     0.587994     0.253322     0.856069    Uiso  ? H
   C662       1.0     0.584695     0.300130     0.851884    Uiso  ? C
   C663       1.0     0.599613     0.326063     0.849897    Uiso  ? C
   H404       1.0     0.587493     0.346000     0.851194    Uiso  ? H
   C664       1.0     0.553023     0.299840     0.852818    Uiso  ? C
   C665       1.0     0.442817     0.297725     0.863374    Uiso  ? C
   C666       1.0     0.411000     0.296516     0.862727    Uiso  ? C
   C667       1.0     0.396206     0.271298     0.857165    Uiso  ? C
   H405       1.0     0.407291     0.251638     0.855021    Uiso  ? H
   C668       1.0     0.365813     0.271326     0.853666    Uiso  ? C
   H406       1.0     0.353828     0.251481     0.849704    Uiso  ? H
   C669       1.0     0.349849     0.296896     0.858715    Uiso  ? C
   H407       1.0     0.325909     0.294888     0.858924    Uiso  ? H
   C670       1.0     0.364625     0.323046     0.865538    Uiso  ? C
   C671       1.0     0.395150     0.322616     0.866404    Uiso  ? C
   H408       1.0     0.405424     0.342658     0.871535    Uiso  ? H
   C672       1.0     0.348494     0.349525     0.870951    Uiso  ? C
   O325       1.0     0.492759     0.383176     0.228210    Uiso  ? O
   O326       1.0     0.480558     0.350371     0.259830    Uiso  ? O
   O327       1.0     0.438015     0.402538     0.262682    Uiso  ? O
   O328       1.0     0.435309     0.370189     0.297421    Uiso  ? O
   O329       1.0     0.419915     0.359522     0.201615    Uiso  ? O
   O330       1.0     0.398571     0.348912     0.241440    Uiso  ? O
   O331       1.0     0.451389     0.344866     0.200999    Uiso  ? O
   O332       1.0     0.466961     0.320593     0.238435    Uiso  ? O
   O333       1.0     0.641082     0.490683     0.226597    Uiso  ? O
   O334       1.0     0.678896     0.466276     0.241171    Uiso  ? O
   O335       1.0     0.592392     0.462013     0.260401    Uiso  ? O
   O336       1.0     0.631602     0.467526     0.286195    Uiso  ? O
   O337       1.0     0.588376     0.430277     0.248733    Uiso  ? O
   O338       1.0     0.625765     0.401833     0.256181    Uiso  ? O
   O339       1.0     0.645373     0.422698     0.204317    Uiso  ? O
   O340       1.0     0.682921     0.434622     0.230014    Uiso  ? O
   O341       1.0     0.469045     0.585816     0.264896    Uiso  ? O
   O342       1.0     0.491271     0.590438     0.306106    Uiso  ? O
   O343       1.0     0.428645     0.532691     0.275695    Uiso  ? O
   O344       1.0     0.424188     0.561405     0.313359    Uiso  ? O
   O345       1.0     0.450278     0.506908     0.289790    Uiso  ? O
   O346       1.0     0.463787     0.515868     0.333661    Uiso  ? O
   O347       1.0     0.510003     0.529676     0.289891    Uiso  ? O
   O348       1.0     0.497991     0.529684     0.335845    Uiso  ? O
   O349       1.0     0.668173     0.451496     0.853331    Uiso  ? O
   O350       1.0     0.709045     0.430034     0.862779    Uiso  ? O
   O351       1.0     0.664159     0.396619     0.898778    Uiso  ? O
   O352       1.0     0.709228     0.403274     0.884556    Uiso  ? O
   O353       1.0     0.632304     0.377109     0.840900    Uiso  ? O
   O354       1.0     0.672159     0.354935     0.854622    Uiso  ? O
   O355       1.0     0.637549     0.401256     0.818704    Uiso  ? O
   O356       1.0     0.682405     0.406474     0.803711    Uiso  ? O
   O357       1.0     0.538558     0.322451     0.846654    Uiso  ? O
   O358       1.0     0.540159     0.276643     0.860204    Uiso  ? O
   O359       1.0     0.502976     0.313697     0.103665    Uiso  ? O
   O360       1.0     0.482921     0.270623     0.893997    Uiso  ? O
   O361       1.0     0.454973     0.320327     0.855891    Uiso  ? O
   O362       1.0     0.457164     0.275879     0.869950    Uiso  ? O
   O363       1.0     0.515265     0.328366     0.822626    Uiso  ? O
   O364       1.0     0.488260     0.290685     0.812976    Uiso  ? O
   O365       1.0     0.661277     0.599991     0.877535    Uiso  ? O
   O366       1.0     0.698285     0.629259     0.885392    Uiso  ? O
   O367       1.0     0.614822     0.618508     0.122993    Uiso  ? O
   O368       1.0     0.655315     0.637493     0.139616    Uiso  ? O
   O369       1.0     0.659470     0.572883     0.158843    Uiso  ? O
   O370       1.0     0.702862     0.578041     0.142238    Uiso  ? O
   O371       1.0     0.662838     0.559820     0.887694    Uiso  ? O
   O372       1.0     0.703740     0.574803     0.107905    Uiso  ? O
   O373       1.0     0.442686     0.424343     0.199107    Uiso  ? O
   O374       1.0     0.592480     0.466841     0.186388    Uiso  ? O
   O375       1.0     0.481484     0.532259     0.227031    Uiso  ? O
   O376       1.0     0.606247     0.429635     0.880686    Uiso  ? O
   O377       1.0     0.493687     0.374064     0.874926    Uiso  ? O
   O378       1.0     0.596153     0.580655     0.121188    Uiso  ? O
   Zn73       1.0     0.449563     0.386694     0.222452    Uiso  ? Zn
   Zn74       1.0     0.435290     0.339817     0.265113    Uiso  ? Zn
   Zn75       1.0     0.615486     0.452933     0.221402    Uiso  ? Zn
   Zn76       1.0     0.654408     0.434907     0.265798    Uiso  ? Zn
   Zn77       1.0     0.472073     0.542220     0.269782    Uiso  ? Zn
   Zn78       1.0     0.466040     0.561365     0.329973    Uiso  ? Zn
   Zn79       1.0     0.644782     0.414582     0.862195    Uiso  ? Zn
   Zn80       1.0     0.699181     0.388745     0.841912    Uiso  ? Zn
   Zn81       1.0     0.497540     0.331035     0.864179    Uiso  ? Zn
   Zn82       1.0     0.497239     0.270024     0.850726    Uiso  ? Zn
   Zn83       1.0     0.643380     0.585575     0.118861    Uiso  ? Zn
   Zn84       1.0     0.693898     0.618297     0.125708    Uiso  ? Zn
   C673       1.0     0.507954     0.637278     0.761039    Uiso  ? C
   C674       1.0     0.476811     0.639291     0.755719    Uiso  ? C
   C675       1.0     0.466081     0.664404     0.743078    Uiso  ? C
   H409       1.0     0.480981     0.681557     0.737118    Uiso  ? H
   C676       1.0     0.436546     0.668806     0.739990    Uiso  ? C
   H410       1.0     0.427762     0.689426     0.733091    Uiso  ? H
   C677       1.0     0.417887     0.646990     0.748110    Uiso  ? C
   H411       1.0     0.395167     0.650122     0.745456    Uiso  ? H
   C678       1.0     0.427717     0.620707     0.759793    Uiso  ? C
   C679       1.0     0.457563     0.616702     0.762983    Uiso  ? C
   H412       1.0     0.465518     0.597446     0.774148    Uiso  ? H
   C680       1.0     0.407112     0.597289     0.767364    Uiso  ? C
   C681       1.0     0.553702     0.594757     0.731382    Uiso  ? C
   C682       1.0     0.549555     0.572676     0.707772    Uiso  ? C
   C683       1.0     0.554090     0.580468     0.678976    Uiso  ? C
   H413       1.0     0.560108     0.601331     0.671881    Uiso  ? H
   C684       1.0     0.547886     0.560207     0.657504    Uiso  ? C
   H414       1.0     0.551588     0.566240     0.635387    Uiso  ? H
   C685       1.0     0.540180     0.531804     0.665090    Uiso  ? C
   H415       1.0     0.537601     0.517071     0.647412    Uiso  ? H
   C686       1.0     0.537431     0.523179     0.693561    Uiso  ? C
   C687       1.0     0.541666     0.544392     0.715294    Uiso  ? C
   H416       1.0     0.538631     0.539838     0.737851    Uiso  ? H
   C688       1.0     0.531993     0.493066     0.700904    Uiso  ? C
   C689       1.0     0.617960     0.631903     0.784006    Uiso  ? C
   C690       1.0     0.647710     0.633017     0.796310    Uiso  ? C
   C691       1.0     0.669655     0.647654     0.781938    Uiso  ? C
   H417       1.0     0.665780     0.656799     0.760807    Uiso  ? H
   C692       1.0     0.696206     0.651829     0.796025    Uiso  ? C
   H418       1.0     0.714363     0.662256     0.784502    Uiso  ? H
   C693       1.0     0.700405     0.640171     0.823566    Uiso  ? C
   H419       1.0     0.721555     0.642622     0.833390    Uiso  ? H
   C694       1.0     0.678692     0.626080     0.837702    Uiso  ? C
   C695       1.0     0.651964     0.623203     0.823749    Uiso  ? C
   H420       1.0     0.633928     0.613413     0.835636    Uiso  ? H
   C696       1.0     0.680245     0.617870     0.868180    Uiso  ? C
   C697       1.0     0.539890     0.672853     0.806739    Uiso  ? C
   C698       1.0     0.527159     0.695186     0.825744    Uiso  ? C
   C699       1.0     0.524311     0.723806     0.816612    Uiso  ? C
   H421       1.0     0.531344     0.730219     0.795322    Uiso  ? H
   C700       1.0     0.511470     0.744619     0.834537    Uiso  ? C
   H422       1.0     0.507675     0.766601     0.826154    Uiso  ? H
   C701       1.0     0.502510     0.736913     0.862074    Uiso  ? C
   H423       1.0     0.495173     0.754769     0.874591    Uiso  ? H
   C702       1.0     0.504402     0.708843     0.871498    Uiso  ? C
   C703       1.0     0.517140     0.687942     0.853099    Uiso  ? C
   H424       1.0     0.518862     0.666302     0.859725    Uiso  ? H
   C704       1.0     0.493674     0.702127     0.100120    Uiso  ? C
   C705       1.0     0.331826     0.516147     0.784541    Uiso  ? C
   C706       1.0     0.311171     0.493734     0.792283    Uiso  ? C
   C707       1.0     0.282547     0.494647     0.784200    Uiso  ? C
   H425       1.0     0.275200     0.512131     0.769872    Uiso  ? H
   C708       1.0     0.262851     0.473982     0.793394    Uiso  ? C
   H426       1.0     0.240242     0.475651     0.787919    Uiso  ? H
   C709       1.0     0.270774     0.453077     0.813264    Uiso  ? C
   H427       1.0     0.255025     0.437534     0.820358    Uiso  ? H
   C710       1.0     0.299464     0.451732     0.822091    Uiso  ? C
   C711       1.0     0.319489     0.471764     0.811473    Uiso  ? C
   H428       1.0     0.341353     0.469807     0.818472    Uiso  ? H
   C712       1.0     0.308274     0.430649     0.843626    Uiso  ? C
   C713       1.0     0.385986     0.515411     0.741381    Uiso  ? C
   C714       1.0     0.399529     0.496146     0.719943    Uiso  ? C
   C715       1.0     0.386151     0.492875     0.693170    Uiso  ? C
   H429       1.0     0.364943     0.502521     0.688229    Uiso  ? H
   C716       1.0     0.400689     0.477614     0.671530    Uiso  ? C
   H430       1.0     0.392061     0.476884     0.650185    Uiso  ? H
   C717       1.0     0.428220     0.466820     0.676163    Uiso  ? C
   H431       1.0     0.439544     0.457718     0.657684    Uiso  ? H
   C718       1.0     0.441424     0.468677     0.703378    Uiso  ? C
   C719       1.0     0.426446     0.482504     0.725590    Uiso  ? C
   H432       1.0     0.437034     0.485552     0.746459    Uiso  ? H
   C720       1.0     0.470877     0.457653     0.707983    Uiso  ? C
   C721       1.0     0.331100     0.576074     0.814471    Uiso  ? C
   C722       1.0     0.310237     0.584119     0.837516    Uiso  ? C
   C723       1.0     0.281851     0.592141     0.829610    Uiso  ? C
   H433       1.0     0.275997     0.595715     0.807951    Uiso  ? H
   C724       1.0     0.261201     0.596608     0.850520    Uiso  ? C
   H434       1.0     0.240311     0.602991     0.845814    Uiso  ? H
   C725       1.0     0.268862     0.595908     0.879241    Uiso  ? C
   H435       1.0     0.252574     0.600033     0.895219    Uiso  ? H
   C726       1.0     0.296389     0.589647     0.887739    Uiso  ? C
   C727       1.0     0.316820     0.582528     0.866737    Uiso  ? C
   H436       1.0     0.338387     0.577867     0.873539    Uiso  ? H
   C728       1.0     0.303732     0.587622     0.118490    Uiso  ? C
   C729       1.0     0.513167     0.387461     0.728772    Uiso  ? C
   C730       1.0     0.506784     0.357312     0.736027    Uiso  ? C
   C731       1.0     0.501846     0.336744     0.714770    Uiso  ? C
   H437       1.0     0.501788     0.342128     0.691828    Uiso  ? H
   C732       1.0     0.498073     0.308040     0.723262    Uiso  ? C
   H438       1.0     0.495650     0.291329     0.707083    Uiso  ? H
   C733       1.0     0.498595     0.299593     0.752277    Uiso  ? C
   H439       1.0     0.496556     0.277455     0.759250    Uiso  ? H
   C734       1.0     0.502944     0.320634     0.774110    Uiso  ? C
   C735       1.0     0.506412     0.349215     0.765356    Uiso  ? C
   H440       1.0     0.507780     0.365974     0.782295    Uiso  ? H
   C736       1.0     0.501752     0.312913     0.804529    Uiso  ? C
   C737       1.0     0.575404     0.425572     0.728916    Uiso  ? C
   C738       1.0     0.606723     0.422189     0.735817    Uiso  ? C
   C739       1.0     0.626261     0.424152     0.712832    Uiso  ? C
   H441       1.0     0.619290     0.429476     0.691452    Uiso  ? H
   C740       1.0     0.654359     0.417932     0.717641    Uiso  ? C
   H442       1.0     0.669457     0.417408     0.699646    Uiso  ? H
   C741       1.0     0.664646     0.413517     0.745638    Uiso  ? C
   H443       1.0     0.686812     0.408691     0.747947    Uiso  ? H
   C742       1.0     0.645779     0.413566     0.768900    Uiso  ? C
   C743       1.0     0.616942     0.417043     0.763464    Uiso  ? C
   H444       1.0     0.602248     0.417632     0.781610    Uiso  ? H
   C744       1.0     0.655628     0.406601     0.798656    Uiso  ? C
   C745       1.0     0.293273     0.522414     0.173092    Uiso  ? C
   C746       1.0     0.281130     0.492931     0.171200    Uiso  ? C
   C747       1.0     0.259919     0.483945     0.190499    Uiso  ? C
   H445       1.0     0.250976     0.498360     0.206514    Uiso  ? H
   C748       1.0     0.249516     0.455276     0.189290    Uiso  ? C
   H446       1.0     0.234502     0.448051     0.205414    Uiso  ? H
   C749       1.0     0.259531     0.435790     0.168141    Uiso  ? C
   H447       1.0     0.251979     0.413237     0.166272    Uiso  ? H
   C750       1.0     0.282030     0.445090     0.149514    Uiso  ? C
   C751       1.0     0.292442     0.473647     0.151341    Uiso  ? C
   H448       1.0     0.309187     0.480906     0.136373    Uiso  ? H
   C752       1.0     0.294439     0.426070     0.127689    Uiso  ? C
   C753       1.0     0.338805     0.624708     0.169558    Uiso  ? C
   C754       1.0     0.350648     0.653742     0.170051    Uiso  ? C
   C755       1.0     0.336565     0.675971     0.184204    Uiso  ? C
   H449       1.0     0.316551     0.672958     0.194500    Uiso  ? H
   C756       1.0     0.348816     0.703468     0.188553    Uiso  ? C
   H450       1.0     0.336095     0.718843     0.200617    Uiso  ? H
   C757       1.0     0.376456     0.707651     0.178901    Uiso  ? C
   H451       1.0     0.385150     0.728516     0.182729    Uiso  ? H
   C758       1.0     0.390552     0.686284     0.162412    Uiso  ? C
   C759       1.0     0.377326     0.659606     0.157428    Uiso  ? C
   H452       1.0     0.388584     0.642119     0.146365    Uiso  ? H
   C760       1.0     0.421508     0.691305     0.155283    Uiso  ? C
   C761       1.0     0.533703     0.689916     0.156278    Uiso  ? C
   C762       1.0     0.565334     0.688150     0.157403    Uiso  ? C
   C763       1.0     0.580758     0.711060     0.169297    Uiso  ? C
   H453       1.0     0.570647     0.730623     0.177209    Uiso  ? H
   C764       1.0     0.610329     0.709831     0.171711    Uiso  ? C
   H454       1.0     0.621914     0.727822     0.179965    Uiso  ? H
   C765       1.0     0.625812     0.686847     0.160849    Uiso  ? C
   H455       1.0     0.649958     0.687586     0.160134    Uiso  ? H
   C766       1.0     0.611279     0.663933     0.147635    Uiso  ? C
   C767       1.0     0.580548     0.664567     0.146672    Uiso  ? C
   H456       1.0     0.567891     0.647607     0.136209    Uiso  ? H
   C768       1.0     0.627663     0.638786     0.136080    Uiso  ? C
   O379       1.0     0.518708     0.613798     0.768887    Uiso  ? O
   O380       1.0     0.524294     0.658369     0.756883    Uiso  ? O
   O381       1.0     0.541198     0.590601     0.756093    Uiso  ? O
   O382       1.0     0.566126     0.618291     0.726191    Uiso  ? O
   O383       1.0     0.601114     0.611786     0.790224    Uiso  ? O
   O384       1.0     0.608072     0.654468     0.772486    Uiso  ? O
   O385       1.0     0.546133     0.648086     0.816965    Uiso  ? O
   O386       1.0     0.542727     0.678310     0.779720    Uiso  ? O
   O387       1.0     0.358336     0.512748     0.790106    Uiso  ? O
   O388       1.0     0.322058     0.540154     0.774677    Uiso  ? O
   O389       1.0     0.390698     0.512520     0.768277    Uiso  ? O
   O390       1.0     0.372719     0.537266     0.732305    Uiso  ? O
   O391       1.0     0.415946     0.572833     0.774179    Uiso  ? O
   O392       1.0     0.380378     0.602063     0.766754    Uiso  ? O
   O393       1.0     0.356543     0.568209     0.820948    Uiso  ? O
   O394       1.0     0.322700     0.573948     0.788003    Uiso  ? O
   O395       1.0     0.527068     0.403139     0.746362    Uiso  ? O
   O396       1.0     0.504200     0.397935     0.704377    Uiso  ? O
   O397       1.0     0.556326     0.421553     0.748228    Uiso  ? O
   O398       1.0     0.567606     0.434186     0.704250    Uiso  ? O
   O399       1.0     0.538552     0.484087     0.726028    Uiso  ? O
   O400       1.0     0.519633     0.476736     0.682956    Uiso  ? O
   O401       1.0     0.478061     0.449301     0.732615    Uiso  ? O
   O402       1.0     0.488365     0.457269     0.687239    Uiso  ? O
   O403       1.0     0.311998     0.529875     0.154708    Uiso  ? O
   O404       1.0     0.285994     0.540528     0.193074    Uiso  ? O
   O405       1.0     0.329970     0.590019     0.125938    Uiso  ? O
   O406       1.0     0.284974     0.581355     0.137369    Uiso  ? O
   O407       1.0     0.345852     0.606036     0.150018    Uiso  ? O
   O408       1.0     0.319867     0.617878     0.187962    Uiso  ? O
   O409       1.0     0.349868     0.569092     0.205391    Uiso  ? O
   O410       1.0     0.305068     0.558326     0.217083    Uiso  ? O
   O411       1.0     0.433357     0.676944     0.135360    Uiso  ? O
   O412       1.0     0.437272     0.704909     0.173341    Uiso  ? O
   O413       1.0     0.498461     0.676970     0.109697    Uiso  ? O
   O414       1.0     0.483831     0.720937     0.117176    Uiso  ? O
   O415       1.0     0.519985     0.672071     0.140382    Uiso  ? O
   O416       1.0     0.520024     0.708240     0.171138    Uiso  ? O
   O417       1.0     0.481100     0.657660     0.186846    Uiso  ? O
   O418       1.0     0.495115     0.701872     0.198304    Uiso  ? O
   O419       1.0     0.351238     0.379908     0.116802    Uiso  ? O
   O420       1.0     0.304698     0.370701     0.124651    Uiso  ? O
   O421       1.0     0.361100     0.370228     0.883276    Uiso  ? O
   O422       1.0     0.321274     0.349398     0.869417    Uiso  ? O
   O423       1.0     0.333400     0.421313     0.845181    Uiso  ? O
   O424       1.0     0.289675     0.419575     0.860876    Uiso  ? O
   O425       1.0     0.315772     0.434669     0.112733    Uiso  ? O
   O426       1.0     0.284484     0.400856     0.123932    Uiso  ? O
   O427       1.0     0.548182     0.581151     0.827497    Uiso  ? O
   O428       1.0     0.415409     0.537841     0.831382    Uiso  ? O
   O429       1.0     0.512213     0.464711     0.787097    Uiso  ? O
   O430       1.0     0.381555     0.541061     0.152962    Uiso  ? O
   O431       1.0     0.466682     0.617264     0.133302    Uiso  ? O
   O432       1.0     0.382944     0.440975     0.891338    Uiso  ? O
   Zn85       1.0     0.556206     0.610828     0.794773    Uiso  ? Zn
   Zn86       1.0     0.569756     0.656028     0.749306    Uiso  ? Zn
   Zn87       1.0     0.389098     0.547145     0.797513    Uiso  ? Zn
   Zn88       1.0     0.350555     0.569599     0.752691    Uiso  ? Zn
   Zn89       1.0     0.520466     0.449381     0.746682    Uiso  ? Zn
   Zn90       1.0     0.526325     0.432369     0.685587    Uiso  ? Zn
   Zn91       1.0     0.342527     0.562419     0.160581    Uiso  ? Zn
   Zn92       1.0     0.288561     0.584817     0.182894    Uiso  ? Zn
   Zn93       1.0     0.474221     0.660482     0.143278    Uiso  ? Zn
   Zn94       1.0     0.476763     0.720705     0.161484    Uiso  ? Zn
   Zn95       1.0     0.346872     0.414453     0.886624    Uiso  ? Zn
   Zn96       1.0     0.293084     0.381454     0.882872    Uiso  ? Zn
   H457       1.0     0.406906     0.531364     0.848986    Uiso  ? H
   H458       1.0     0.435275     0.540704     0.829737    Uiso  ? H
   H459       1.0     0.599928     0.484102     0.176406    Uiso  ? H
   H460       1.0     0.580846     0.453072     0.177405    Uiso  ? H
   H461       1.0     0.586142     0.577373     0.103595    Uiso  ? H
   H462       1.0     0.587723     0.575245     0.139781    Uiso  ? H
   H463       1.0     0.602334     0.449445     0.881476    Uiso  ? H
   H464       1.0     0.594091     0.415690     0.889942    Uiso  ? H
   H465       1.0     0.390077     0.451464     0.874292    Uiso  ? H
   H466       1.0     0.386095     0.450495     0.110012    Uiso  ? H
   H467       1.0     0.430535     0.425258     0.183040    Uiso  ? H
   H468       1.0     0.448086     0.441593     0.208284    Uiso  ? H
   H469       1.0     0.478119     0.379386     0.887496    Uiso  ? H
   H470       1.0     0.506986     0.388681     0.867224    Uiso  ? H
   H471       1.0     0.391548     0.545826     0.135869    Uiso  ? H
   H472       1.0     0.390464     0.529270     0.167404    Uiso  ? H
   H473       1.0     0.483127     0.512262     0.221715    Uiso  ? H
   H474       1.0     0.486525     0.547716     0.213597    Uiso  ? H
   H475       1.0     0.451393     0.607525     0.143094    Uiso  ? H
   H476       1.0     0.479184     0.608152     0.120134    Uiso  ? H
   H477       1.0     0.493034     0.468345     0.793175    Uiso  ? H
   H478       1.0     0.528295     0.469762     0.799154    Uiso  ? H
   H479       1.0     0.562490     0.567088     0.832204    Uiso  ? H
   H480       1.0     0.529886     0.582287     0.838162    Uiso  ? H
   C769       1.0     0.497463     0.384849     0.340739    Uiso  ? C
   H481       1.0     0.495637     0.395236     0.320051    Uiso  ? H
   C770       1.0     0.508044     0.376377     0.384743    Uiso  ? C
   N1         1.0     0.513298     0.395130     0.362927    Uiso  ? N
   C771       1.0     0.531381     0.420767     0.363228    Uiso  ? C
   H482       1.0     0.530485     0.432120     0.342689    Uiso  ? H
   H483       1.0     0.522752     0.435535     0.380181    Uiso  ? H
   C772       1.0     0.562557     0.413194     0.367263    Uiso  ? C
   C773       1.0     0.577854     0.424264     0.390939    Uiso  ? C
   C774       1.0     0.577910     0.397686     0.345632    Uiso  ? C
   C775       1.0     0.607213     0.418650     0.394027    Uiso  ? C
   H484       1.0     0.566622     0.435835     0.407949    Uiso  ? H
   C776       1.0     0.607035     0.391522     0.349420    Uiso  ? C
   H485       1.0     0.567019     0.390238     0.326395    Uiso  ? H
   C777       1.0     0.622264     0.402192     0.373530    Uiso  ? C
   H486       1.0     0.618549     0.424816     0.413792    Uiso  ? H
   H487       1.0     0.618065     0.379888     0.332121    Uiso  ? H
   C778       1.0     0.654810     0.397959     0.374743    Uiso  ? C
   H488       1.0     0.662516     0.414185     0.390134    Uiso  ? H
   H489       1.0     0.659958     0.376463     0.383852    Uiso  ? H
   N2         1.0     0.668342     0.401513     0.346901    Uiso  ? N
   C779       1.0     0.662978     0.423342     0.328317    Uiso  ? C
   N3         1.0     0.671472     0.415447     0.301396    Uiso  ? N
   C780       1.0     0.684834     0.390485     0.304021    Uiso  ? C
   H490       1.0     0.692637     0.377854     0.285944    Uiso  ? H
   C781       1.0     0.683578     0.382053     0.332028    Uiso  ? C
   H491       1.0     0.688640     0.360744     0.339320    Uiso  ? H
   N4         1.0     0.489317     0.355081     0.377076    Uiso  ? N
   C782       1.0     0.482440     0.360325     0.349341    Uiso  ? C
   H492       1.0     0.468465     0.347332     0.336324    Uiso  ? H
   H493       1.0     0.519537     0.376759     0.404832    Uiso  ? H
   H494       1.0     0.650375     0.441612     0.333847    Uiso  ? H
   C783       1.0     0.318053     0.776010     0.266428    Uiso  ? C
   H495       1.0     0.312069     0.757267     0.255518    Uiso  ? H
   C784       1.0     0.330133     0.819575     0.275538    Uiso  ? C
   N5         1.0     0.319302     0.802316     0.254998    Uiso  ? N
   C785       1.0     0.312000     0.810179     0.225558    Uiso  ? C
   H496       1.0     0.296900     0.793309     0.218225    Uiso  ? H
   H497       1.0     0.301090     0.830047     0.225229    Uiso  ? H
   C786       1.0     0.337566     0.811908     0.205829    Uiso  ? C
   C787       1.0     0.356661     0.834847     0.209405    Uiso  ? C
   C788       1.0     0.343451     0.790356     0.185954    Uiso  ? C
   C789       1.0     0.380430     0.837235     0.191268    Uiso  ? C
   H498       1.0     0.353478     0.850663     0.226638    Uiso  ? H
   C790       1.0     0.368014     0.793137     0.168309    Uiso  ? C
   H499       1.0     0.330004     0.772406     0.182026    Uiso  ? H
   C791       1.0     0.386069     0.816631     0.170305    Uiso  ? C
   H500       1.0     0.395676     0.854166     0.193759    Uiso  ? H
   H501       1.0     0.372958     0.776940     0.152391    Uiso  ? H
   C792       1.0     0.412711     0.818929     0.151451    Uiso  ? C
   H502       1.0     0.406494     0.816324     0.128548    Uiso  ? H
   H503       1.0     0.421231     0.840932     0.153247    Uiso  ? H
   N6         1.0     0.434194     0.798575     0.161602    Uiso  ? N
   C793       1.0     0.440947     0.773046     0.149881    Uiso  ? C
   N7         1.0     0.461637     0.759603     0.165777    Uiso  ? N
   C794       1.0     0.467687     0.776405     0.187816    Uiso  ? C
   H504       1.0     0.483567     0.771575     0.203353    Uiso  ? H
   C795       1.0     0.451382     0.801137     0.185138    Uiso  ? C
   H505       1.0     0.449967     0.819820     0.198929    Uiso  ? H
   N8         1.0     0.337038     0.805147     0.299624    Uiso  ? N
   C796       1.0     0.328873     0.777537     0.293946    Uiso  ? C
   H506       1.0     0.331561     0.759659     0.308651    Uiso  ? H
   H507       1.0     0.334592     0.842811     0.271780    Uiso  ? H
   H508       1.0     0.430483     0.764502     0.130549    Uiso  ? H
   C797       1.0     0.326770     0.581699     0.669819    Uiso  ? C
   H509       1.0     0.321875     0.572687     0.649457    Uiso  ? H
   C798       1.0     0.342551     0.609296     0.702820    Uiso  ? C
   N9         1.0     0.337545     0.608150     0.674662    Uiso  ? N
   C799       1.0     0.350399     0.626302     0.652534    Uiso  ? C
   H510       1.0     0.341368     0.622984     0.630963    Uiso  ? H
   H511       1.0     0.345796     0.648857     0.658105    Uiso  ? H
   C800       1.0     0.382191     0.619487     0.651647    Uiso  ? C
   C801       1.0     0.392012     0.594596     0.636985    Uiso  ? C
   C802       1.0     0.401805     0.636428     0.666249    Uiso  ? C
   C803       1.0     0.421472     0.587175     0.638538    Uiso  ? C
   H512       1.0     0.375350     0.580533     0.627694    Uiso  ? H
   C804       1.0     0.430674     0.628838     0.667199    Uiso  ? C
   H513       1.0     0.394297     0.655437     0.677578    Uiso  ? H
   C805       1.0     0.441275     0.604595     0.653086    Uiso  ? C
   H514       1.0     0.427773     0.566835     0.628695    Uiso  ? H
   H515       1.0     0.444346     0.644022     0.679434    Uiso  ? H
   C806       1.0     0.472283     0.596488     0.653900    Uiso  ? C
   H516       1.0     0.475810     0.580221     0.670435    Uiso  ? H
   H517       1.0     0.478915     0.585958     0.633244    Uiso  ? H
   N10        1.0     0.492031     0.621409     0.656636    Uiso  ? N
   C807       1.0     0.499720     0.640195     0.636191    Uiso  ? C
   N11        1.0     0.515288     0.662451     0.646418    Uiso  ? N
   C808       1.0     0.517264     0.657076     0.674767    Uiso  ? C
   H518       1.0     0.528885     0.670071     0.689687    Uiso  ? H
   C809       1.0     0.503203     0.632210     0.681425    Uiso  ? C
   H519       1.0     0.500936     0.621401     0.701632    Uiso  ? H
   N12        1.0     0.336170     0.584817     0.716327    Uiso  ? N
   C810       1.0     0.324996     0.567915     0.695883    Uiso  ? C
   H520       1.0     0.317752     0.545936     0.698531    Uiso  ? H
   H521       1.0     0.355078     0.625642     0.712291    Uiso  ? H
   H522       1.0     0.491705     0.640266     0.614323    Uiso  ? H
   C811       1.0     0.688350     0.205220     0.746641    Uiso  ? C
   H523       1.0     0.701520     0.201299     0.764529    Uiso  ? H
   C812       1.0     0.655791     0.221590     0.719726    Uiso  ? C
   N13        1.0     0.666708     0.223755     0.746437    Uiso  ? N
   C813       1.0     0.654866     0.240107     0.770613    Uiso  ? C
   H524       1.0     0.671832     0.242869     0.787324    Uiso  ? H
   H525       1.0     0.650051     0.262314     0.763689    Uiso  ? H
   C814       1.0     0.627491     0.226416     0.781152    Uiso  ? C
   C815       1.0     0.600766     0.232558     0.768152    Uiso  ? C
   C816       1.0     0.628559     0.204013     0.801645    Uiso  ? C
   C817       1.0     0.576068     0.215782     0.774799    Uiso  ? C
   H526       1.0     0.599396     0.248178     0.751259    Uiso  ? H
   C818       1.0     0.604099     0.188168     0.809067    Uiso  ? C
   H527       1.0     0.649213     0.199469     0.810820    Uiso  ? H
   C819       1.0     0.578097     0.193996     0.795569    Uiso  ? C
   H528       1.0     0.555899     0.221201     0.764398    Uiso  ? H
   H529       1.0     0.605929     0.171580     0.825143    Uiso  ? H
   C820       1.0     0.551204     0.176877     0.803219    Uiso  ? C
   H530       1.0     0.543185     0.165973     0.784386    Uiso  ? H
   H531       1.0     0.556698     0.161567     0.820360    Uiso  ? H
   N14        1.0     0.527958     0.195637     0.813934    Uiso  ? N
   C821       1.0     0.529407     0.218873     0.831242    Uiso  ? C
   N15        1.0     0.503936     0.231669     0.834077    Uiso  ? N
   C822       1.0     0.486005     0.217382     0.817237    Uiso  ? C
   H532       1.0     0.463976     0.223667     0.814482    Uiso  ? H
   C823       1.0     0.500448     0.195199     0.805137    Uiso  ? C
   H533       1.0     0.491859     0.179708     0.789552    Uiso  ? H
   N16        1.0     0.669592     0.202173     0.703430    Uiso  ? N
   C824       1.0     0.690472     0.191346     0.720807    Uiso  ? C
   H534       1.0     0.703098     0.172958     0.715068    Uiso  ? H
   H535       1.0     0.637332     0.232977     0.711492    Uiso  ? H
   H536       1.0     0.549048     0.228071     0.839644    Uiso  ? H
   C825       1.0     0.849847     0.270155     0.277802    Uiso  ? C
   H537       1.0     0.858465     0.266921     0.256929    Uiso  ? H
   C826       1.0     0.820864     0.272565     0.314171    Uiso  ? C
   N17        1.0     0.823203     0.262591     0.287026    Uiso  ? N
   C827       1.0     0.800407     0.247658     0.271073    Uiso  ? C
   H538       1.0     0.799342     0.255177     0.248699    Uiso  ? H
   H539       1.0     0.805385     0.223228     0.269845    Uiso  ? H
   C828       1.0     0.770325     0.252722     0.283768    Uiso  ? C
   C829       1.0     0.758697     0.232521     0.301819    Uiso  ? C
   C830       1.0     0.757325     0.279835     0.281560    Uiso  ? C
   C831       1.0     0.735766     0.240139     0.318835    Uiso  ? C
   H540       1.0     0.768046     0.211683     0.303855    Uiso  ? H
   C832       1.0     0.733681     0.287470     0.297365    Uiso  ? C
   H541       1.0     0.766536     0.296786     0.268343    Uiso  ? H
   C833       1.0     0.722419     0.267464     0.317770    Uiso  ? C
   H542       1.0     0.726188     0.223428     0.333126    Uiso  ? H
   H543       1.0     0.722640     0.307653     0.294225    Uiso  ? H
   C834       1.0     0.696580     0.274203     0.336122    Uiso  ? C
   H544       1.0     0.691874     0.297897     0.333712    Uiso  ? H
   H545       1.0     0.678398     0.261683     0.329155    Uiso  ? H
   N18        1.0     0.702888     0.269678     0.366606    Uiso  ? N
   C835       1.0     0.696685     0.246264     0.381610    Uiso  ? C
   N19        1.0     0.702551     0.250165     0.409959    Uiso  ? N
   C836       1.0     0.713087     0.276834     0.411948    Uiso  ? C
   H546       1.0     0.719921     0.287650     0.431683    Uiso  ? H
   C837       1.0     0.715039     0.288638     0.385108    Uiso  ? C
   H547       1.0     0.720810     0.310342     0.379610    Uiso  ? H
   N20        1.0     0.845147     0.286821     0.322622    Uiso  ? N
   C838       1.0     0.863877     0.283458     0.300728    Uiso  ? C
   H548       1.0     0.885103     0.293498     0.299461    Uiso  ? H
   H549       1.0     0.801021     0.272496     0.326625    Uiso  ? H
   H550       1.0     0.688266     0.226392     0.372488    Uiso  ? H
   C839       1.0     0.557239     0.616577     0.381644    Uiso  ? C
   H551       1.0     0.551960     0.594499     0.377243    Uiso  ? H
   C840       1.0     0.577245     0.653500     0.399059    Uiso  ? C
   N21        1.0     0.579536     0.624225     0.398445    Uiso  ? N
   C841       1.0     0.600132     0.605959     0.413000    Uiso  ? C
   H552       1.0     0.592521     0.583584     0.411986    Uiso  ? H
   H553       1.0     0.620600     0.605166     0.402358    Uiso  ? H
   C842       1.0     0.601853     0.615396     0.444146    Uiso  ? C
   C843       1.0     0.622045     0.636215     0.452328    Uiso  ? C
   C844       1.0     0.583569     0.604655     0.464759    Uiso  ? C
   C845       1.0     0.623091     0.646168     0.480607    Uiso  ? C
   H554       1.0     0.635717     0.646297     0.436566    Uiso  ? H
   C846       1.0     0.585730     0.612490     0.493495    Uiso  ? C
   H555       1.0     0.565439     0.591009     0.458810    Uiso  ? H
   C847       1.0     0.605089     0.634242     0.501168    Uiso  ? C
   H556       1.0     0.638427     0.662058     0.486562    Uiso  ? H
   H557       1.0     0.571306     0.602353     0.509400    Uiso  ? H
   C848       1.0     0.607039     0.643575     0.532696    Uiso  ? C
   H558       1.0     0.618452     0.665132     0.534500    Uiso  ? H
   H559       1.0     0.584929     0.645940     0.539814    Uiso  ? H
   N22        1.0     0.621671     0.621598     0.548686    Uiso  ? N
   C849       1.0     0.648202     0.611811     0.544246    Uiso  ? C
   N23        1.0     0.655121     0.591344     0.563088    Uiso  ? N
   C850       1.0     0.632234     0.587422     0.579915    Uiso  ? C
   H560       1.0     0.631540     0.572283     0.597298    Uiso  ? H
   C851       1.0     0.611111     0.606781     0.571041    Uiso  ? C
   H561       1.0     0.589284     0.610611     0.578852    Uiso  ? H
   N24        1.0     0.555048     0.663965     0.383942    Uiso  ? N
   C852       1.0     0.542351     0.640330     0.372899    Uiso  ? C
   H562       1.0     0.521725     0.641269     0.362027    Uiso  ? H
   H563       1.0     0.590326     0.666843     0.412618    Uiso  ? H
   H564       1.0     0.660780     0.615808     0.525255    Uiso  ? H
   C853       1.0     0.397063     0.385277     0.443046    Uiso  ? C
   H565       1.0     0.408888     0.367524     0.433989    Uiso  ? H
   C854       1.0     0.383477     0.419904     0.469638    Uiso  ? C
   N25        1.0     0.404030     0.399772     0.466666    Uiso  ? N
   C855       1.0     0.427653     0.393968     0.486176    Uiso  ? C
   H566       1.0     0.436939     0.372949     0.482595    Uiso  ? H
   H567       1.0     0.444965     0.410188     0.481002    Uiso  ? H
   C856       1.0     0.418261     0.394795     0.516640    Uiso  ? C
   C857       1.0     0.396262     0.376516     0.526391    Uiso  ? C
   C858       1.0     0.430359     0.414833     0.535329    Uiso  ? C
   C859       1.0     0.386636     0.378561     0.554828    Uiso  ? C
   H568       1.0     0.387392     0.361077     0.512016    Uiso  ? H
   C860       1.0     0.421141     0.416113     0.564179    Uiso  ? C
   H569       1.0     0.445805     0.429800     0.526245    Uiso  ? H
   C861       1.0     0.398973     0.398648     0.573884    Uiso  ? C
   H570       1.0     0.370488     0.364294     0.562878    Uiso  ? H
   H571       1.0     0.429545     0.432609     0.577488    Uiso  ? H
   C862       1.0     0.390668     0.398904     0.604856    Uiso  ? C
   H572       1.0     0.394548     0.421141     0.613591    Uiso  ? H
   H573       1.0     0.367200     0.392731     0.606690    Uiso  ? H
   N26        1.0     0.407456     0.377807     0.620414    Uiso  ? N
   C863       1.0     0.409683     0.349520     0.615277    Uiso  ? C
   N27        1.0     0.431755     0.337457     0.629260    Uiso  ? N
   C864       1.0     0.443730     0.359430     0.644334    Uiso  ? C
   H574       1.0     0.463811     0.357920     0.655653    Uiso  ? H
   C865       1.0     0.428690     0.383711     0.639156    Uiso  ? C
   H575       1.0     0.434220     0.404269     0.647227    Uiso  ? H
   N28        1.0     0.362842     0.416925     0.449719    Uiso  ? N
   C866       1.0     0.371734     0.395556     0.432525    Uiso  ? C
   H576       1.0     0.359393     0.387360     0.415865    Uiso  ? H
   H577       1.0     0.382234     0.434667     0.487765    Uiso  ? H
   H578       1.0     0.396604     0.337732     0.600662    Uiso  ? H
   C867       1.0     0.142274     0.729549     0.692812    Uiso  ? C
   H579       1.0     0.132609     0.747793     0.703325    Uiso  ? H
   C868       1.0     0.173019     0.695416     0.684855    Uiso  ? C
   N29        1.0     0.164979     0.715385     0.704175    Uiso  ? N
   C869       1.0     0.181428     0.723866     0.729440    Uiso  ? C
   H580       1.0     0.170460     0.740889     0.741585    Uiso  ? H
   H581       1.0     0.184669     0.703871     0.743374    Uiso  ? H
   C870       1.0     0.209445     0.736830     0.719484    Uiso  ? C
   C871       1.0     0.209239     0.765572     0.711189    Uiso  ? C
   C872       1.0     0.233975     0.720312     0.714890    Uiso  ? C
   C873       1.0     0.232940     0.777768     0.698464    Uiso  ? C
   H582       1.0     0.189980     0.779068     0.714817    Uiso  ? H
   C874       1.0     0.257677     0.732515     0.701379    Uiso  ? C
   H583       1.0     0.233694     0.696964     0.719321    Uiso  ? H
   C875       1.0     0.257617     0.761695     0.693091    Uiso  ? C
   H584       1.0     0.231675     0.800132     0.691631    Uiso  ? H
   H585       1.0     0.276459     0.719687     0.695625    Uiso  ? H
   C876       1.0     0.283204     0.775767     0.678087    Uiso  ? C
   H586       1.0     0.285545     0.799550     0.684522    Uiso  ? H
   H587       1.0     0.304443     0.765787     0.684633    Uiso  ? H
   N30        1.0     0.280735     0.773821     0.646151    Uiso  ? N
   C877       1.0     0.303137     0.771508     0.627383    Uiso  ? C
   N31        1.0     0.295167     0.775767     0.599478    Uiso  ? N
   C878       1.0     0.266356     0.779508     0.601031    Uiso  ? C
   H588       1.0     0.254204     0.785623     0.582576    Uiso  ? H
   C879       1.0     0.257430     0.779033     0.629958    Uiso  ? C
   H589       1.0     0.235902     0.784980     0.636974    Uiso  ? H
   N32        1.0     0.155822     0.695768     0.662122    Uiso  ? N
   C880       1.0     0.136230     0.716787     0.666181    Uiso  ? C
   H590       1.0     0.119662     0.722588     0.651080    Uiso  ? H
   H591       1.0     0.190446     0.680376     0.687380    Uiso  ? H
   H592       1.0     0.325125     0.772122     0.634195    Uiso  ? H
   C881       1.0     0.761433     0.647351     0.174387    Uiso  ? C
   H593       1.0     0.784224     0.648079     0.180461    Uiso  ? H
   C882       1.0     0.715460     0.650746     0.175779    Uiso  ? C
   N33        1.0     0.739138     0.654436     0.191934    Uiso  ? N
   C883       1.0     0.740390     0.662866     0.222534    Uiso  ? C
   H594       1.0     0.763246     0.661985     0.229842    Uiso  ? H
   H595       1.0     0.732272     0.685588     0.225096    Uiso  ? H
   C884       1.0     0.722268     0.642605     0.239547    Uiso  ? C
   C885       1.0     0.700465     0.652553     0.258595    Uiso  ? C
   C886       1.0     0.724412     0.613338     0.234387    Uiso  ? C
   C887       1.0     0.681220     0.633617     0.271303    Uiso  ? C
   H596       1.0     0.699331     0.674592     0.261754    Uiso  ? H
   C888       1.0     0.705100     0.594823     0.248003    Uiso  ? C
   H597       1.0     0.739939     0.604020     0.220257    Uiso  ? H
   C889       1.0     0.683385     0.603908     0.266179    Uiso  ? C
   H598       1.0     0.664386     0.641361     0.285093    Uiso  ? H
   H599       1.0     0.707074     0.571843     0.243409    Uiso  ? H
   C890       1.0     0.661487     0.582816     0.278029    Uiso  ? C
   H600       1.0     0.648176     0.592839     0.294824    Uiso  ? H
   H601       1.0     0.646101     0.576598     0.262062    Uiso  ? H
   N34        1.0     0.675775     0.558545     0.290967    Uiso  ? N
   C891       1.0     0.701069     0.559445     0.305792    Uiso  ? C
   N35        1.0     0.708319     0.533247     0.315341    Uiso  ? N
   C892       1.0     0.687182     0.515325     0.307191    Uiso  ? C
   H602       1.0     0.685616     0.492942     0.313361    Uiso  ? H
   C893       1.0     0.665978     0.531334     0.292075    Uiso  ? C
   H603       1.0     0.646432     0.523929     0.282969    Uiso  ? H
   N36        1.0     0.721195     0.638552     0.150246    Uiso  ? N
   C894       1.0     0.749860     0.636269     0.149753    Uiso  ? C
   H604       1.0     0.760705     0.625778     0.133030    Uiso  ? H
   H605       1.0     0.693539     0.652929     0.184445    Uiso  ? H
   H606       1.0     0.714595     0.577977     0.309409    Uiso  ? H
   C895       1.0     0.451640     0.597033     0.412171    Uiso  ? C
   H607       1.0     0.446020     0.597095     0.434743    Uiso  ? H
   C896       1.0     0.467492     0.611427     0.370510    Uiso  ? C
   N37        1.0     0.461384     0.620507     0.397741    Uiso  ? N
   C897       1.0     0.466708     0.649288     0.408769    Uiso  ? C
   H608       1.0     0.479588     0.647282     0.428678    Uiso  ? H
   H609       1.0     0.480908     0.661253     0.393654    Uiso  ? H
   C898       1.0     0.440397     0.666966     0.413294    Uiso  ? C
   C899       1.0     0.417333     0.664670     0.394388    Uiso  ? C
   C900       1.0     0.438642     0.687497     0.436186    Uiso  ? C
   C901       1.0     0.393180     0.681175     0.397148    Uiso  ? C
   H610       1.0     0.417634     0.648846     0.375884    Uiso  ? H
   C902       1.0     0.413910     0.703944     0.439558    Uiso  ? C
   H611       1.0     0.457185     0.689811     0.450748    Uiso  ? H
   C903       1.0     0.390745     0.700469     0.419963    Uiso  ? C
   H612       1.0     0.376046     0.678378     0.381977    Uiso  ? H
   H613       1.0     0.412415     0.719771     0.456342    Uiso  ? H
   C904       1.0     0.365651     0.719753     0.422854    Uiso  ? C
   H614       1.0     0.362247     0.724749     0.445797    Uiso  ? H
   H615       1.0     0.370282     0.740068     0.412381    Uiso  ? H
   N38        1.0     0.339566     0.706399     0.410781    Uiso  ? N
   C905       1.0     0.320460     0.689149     0.423848    Uiso  ? C
   N39        1.0     0.298771     0.681718     0.406349    Uiso  ? N
   C906       1.0     0.304226     0.695500     0.381461    Uiso  ? C
   H616       1.0     0.290571     0.696125     0.362603    Uiso  ? H
   C907       1.0     0.328885     0.711006     0.384442    Uiso  ? C
   H617       1.0     0.338275     0.725196     0.368161    Uiso  ? H
   N40        1.0     0.461906     0.583434     0.367055    Uiso  ? N
   C908       1.0     0.453219     0.574543     0.393418    Uiso  ? C
   H618       1.0     0.446243     0.552334     0.397855    Uiso  ? H
   H619       1.0     0.474867     0.625711     0.354113    Uiso  ? H
   H620       1.0     0.322466     0.682145     0.446302    Uiso  ? H
   C909       1.0     0.216852     0.365372     0.841403    Uiso  ? C
   H621       1.0     0.195721     0.371558     0.831794    Uiso  ? H
   C910       1.0     0.257849     0.344821     0.844079    Uiso  ? C
   N41        1.0     0.232966     0.344690     0.829163    Uiso  ? N
   C911       1.0     0.230591     0.332921     0.800073    Uiso  ? C
   H622       1.0     0.234104     0.309185     0.801287    Uiso  ? H
   H623       1.0     0.208586     0.337019     0.792372    Uiso  ? H
   C912       1.0     0.252948     0.346926     0.781085    Uiso  ? C
   C913       1.0     0.251473     0.377178     0.776687    Uiso  ? C
   C914       1.0     0.276852     0.331304     0.770596    Uiso  ? C
   C915       1.0     0.274343     0.391855     0.764845    Uiso  ? C
   H624       1.0     0.233748     0.389046     0.785110    Uiso  ? H
   C916       1.0     0.299808     0.345317     0.757332    Uiso  ? C
   H625       1.0     0.276770     0.308171     0.773264    Uiso  ? H
   C917       1.0     0.298214     0.376012     0.754298    Uiso  ? C
   H626       1.0     0.273735     0.415097     0.762566    Uiso  ? H
   H627       1.0     0.318327     0.333939     0.747975    Uiso  ? H
   C918       1.0     0.324773     0.392901     0.743765    Uiso  ? C
   H628       1.0     0.337903     0.399000     0.762901    Uiso  ? H
   H629       1.0     0.336709     0.378626     0.729619    Uiso  ? H
   N42        1.0     0.315435     0.417939     0.727308    Uiso  ? N
   C919       1.0     0.296829     0.418675     0.705208    Uiso  ? C
   N43        1.0     0.290071     0.445519     0.698093    Uiso  ? N
   C920       1.0     0.305789     0.461981     0.715186    Uiso  ? C
   H630       1.0     0.305598     0.485777     0.714690    Uiso  ? H
   C921       1.0     0.321253     0.445706     0.733819    Uiso  ? C
   H631       1.0     0.334227     0.452755     0.751789    Uiso  ? H
   N44        1.0     0.257916     0.365896     0.864151    Uiso  ? N
   C922       1.0     0.231886     0.378078     0.862777    Uiso  ? C
   H632       1.0     0.224676     0.396299     0.874666    Uiso  ? H
   H633       1.0     0.276995     0.333619     0.836201    Uiso  ? H
   H634       1.0     0.287272     0.399613     0.695653    Uiso  ? H
   C923       1.0     0.545977     0.412731     0.602556    Uiso  ? C
   H635       1.0     0.552918     0.416867     0.581307    Uiso  ? H
   C924       1.0     0.533305     0.389385     0.640084    Uiso  ? C
   N45        1.0     0.540159     0.386138     0.612450    Uiso  ? N
   C925       1.0     0.541323     0.359354     0.596420    Uiso  ? C
   H636       1.0     0.522157     0.346408     0.602388    Uiso  ? H
   H637       1.0     0.537865     0.364689     0.573820    Uiso  ? H
   C926       1.0     0.568894     0.342414     0.599712    Uiso  ? C
   C927       1.0     0.570164     0.314457     0.587745    Uiso  ? C
   C928       1.0     0.593258     0.353637     0.612609    Uiso  ? C
   C929       1.0     0.593857     0.296591     0.592137    Uiso  ? C
   H638       1.0     0.551801     0.305583     0.575401    Uiso  ? H
   C930       1.0     0.617805     0.336574     0.615667    Uiso  ? C
   H639       1.0     0.594056     0.376061     0.621644    Uiso  ? H
   C931       1.0     0.617631     0.307220     0.607244    Uiso  ? C
   H640       1.0     0.594862     0.274758     0.584593    Uiso  ? H
   H641       1.0     0.635535     0.345637     0.626380    Uiso  ? H
   C932       1.0     0.642749     0.288009     0.612270    Uiso  ? C
   H642       1.0     0.651294     0.293198     0.634182    Uiso  ? H
   H643       1.0     0.636374     0.265613     0.610238    Uiso  ? H
   N46        1.0     0.664109     0.294142     0.590245    Uiso  ? N
   C933       1.0     0.686967     0.311438     0.593074    Uiso  ? C
   N47        1.0     0.702239     0.311968     0.568558    Uiso  ? N
   C934       1.0     0.689005     0.294593     0.550458    Uiso  ? C
   H644       1.0     0.696284     0.291441     0.529251    Uiso  ? H
   C935       1.0     0.665628     0.283329     0.563410    Uiso  ? C
   H645       1.0     0.651352     0.266455     0.553849    Uiso  ? H
   N48        1.0     0.534914     0.416921     0.648336    Uiso  ? N
   C936       1.0     0.544063     0.431400     0.625033    Uiso  ? C
   H646       1.0     0.548165     0.454103     0.623504    Uiso  ? H
   H647       1.0     0.526351     0.371931     0.652775    Uiso  ? H
   H648       1.0     0.691441     0.323999     0.612195    Uiso  ? H
   C937       1.0     0.590412     0.796049     0.841581    Uiso  ? C
   H649       1.0     0.572436     0.782592     0.835855    Uiso  ? H
   C938       1.0     0.625088     0.826007     0.837277    Uiso  ? C
   N49        1.0     0.599754     0.818733     0.826114    Uiso  ? N
   C939       1.0     0.585964     0.830535     0.800326    Uiso  ? C
   H650       1.0     0.562310     0.834854     0.805958    Uiso  ? H
   H651       1.0     0.595968     0.851923     0.795713    Uiso  ? H
   C940       1.0     0.589095     0.812428     0.773446    Uiso  ? C
   C941       1.0     0.608188     0.788655     0.772057    Uiso  ? C
   C942       1.0     0.571802     0.818922     0.749306    Uiso  ? C
   C943       1.0     0.609606     0.771472     0.747217    Uiso  ? C
   H652       1.0     0.623359     0.784785     0.788798    Uiso  ? H
   C944       1.0     0.574225     0.802310     0.724731    Uiso  ? C
   H653       1.0     0.559303     0.837775     0.750058    Uiso  ? H
   C945       1.0     0.591870     0.777640     0.723489    Uiso  ? C
   H654       1.0     0.623179     0.752662     0.747384    Uiso  ? H
   H655       1.0     0.561766     0.808377     0.707427    Uiso  ? H
   C946       1.0     0.592605     0.759552     0.696701    Uiso  ? C
   H656       1.0     0.573041     0.764146     0.685228    Uiso  ? H
   H657       1.0     0.610613     0.766388     0.683362    Uiso  ? H
   N50        1.0     0.592755     0.728492     0.702371    Uiso  ? N
   C947       1.0     0.578202     0.713373     0.723328    Uiso  ? C
   N51        1.0     0.581694     0.685086     0.720573    Uiso  ? N
   C948       1.0     0.597424     0.681428     0.696985    Uiso  ? C
   H658       1.0     0.603818     0.660353     0.689683    Uiso  ? H
   C949       1.0     0.604767     0.708545     0.686025    Uiso  ? C
   H659       1.0     0.615641     0.712222     0.666106    Uiso  ? H
   N52        1.0     0.632107     0.809451     0.860184    Uiso  ? N
   C950       1.0     0.609842     0.790682     0.863079    Uiso  ? C
   H660       1.0     0.609322     0.772264     0.878143    Uiso  ? H
   H661       1.0     0.639995     0.841179     0.827342    Uiso  ? H
   H662       1.0     0.565703     0.723523     0.740967    Uiso  ? H
   C951       1.0     0.765855     0.335258     0.813021    Uiso  ? C
   H663       1.0     0.777174     0.314947     0.811179    Uiso  ? H
   C952       1.0     0.751767     0.378437     0.805389    Uiso  ? C
   N53        1.0     0.772077     0.359140     0.797842    Uiso  ? N
   C953       1.0     0.795493     0.362299     0.776648    Uiso  ? C
   H664       1.0     0.803042     0.384764     0.773491    Uiso  ? H
   H665       1.0     0.815353     0.349078     0.782978    Uiso  ? H
   C954       1.0     0.787014     0.349615     0.747535    Uiso  ? C
   C955       1.0     0.762009     0.332197     0.743411    Uiso  ? C
   C956       1.0     0.805029     0.355645     0.724144    Uiso  ? C
   C957       1.0     0.756459     0.320615     0.716183    Uiso  ? C
   H666       1.0     0.746361     0.329373     0.760322    Uiso  ? H
   C958       1.0     0.798047     0.344905     0.697650    Uiso  ? C
   H667       1.0     0.823254     0.370230     0.726026    Uiso  ? H
   C959       1.0     0.776231     0.325110     0.693836    Uiso  ? C
   H668       1.0     0.737201     0.307080     0.711688    Uiso  ? H
   H669       1.0     0.811532     0.350115     0.679101    Uiso  ? H
   C960       1.0     0.770430     0.311970     0.664705    Uiso  ? C
   H670       1.0     0.746266     0.311414     0.659312    Uiso  ? H
   H671       1.0     0.781209     0.324934     0.647264    Uiso  ? H
   N54        1.0     0.780715     0.282457     0.663075    Uiso  ? N
   C961       1.0     0.801298     0.269872     0.678882    Uiso  ? C
   N55        1.0     0.804997     0.242210     0.671696    Uiso  ? N
   C962       1.0     0.786668     0.236986     0.650273    Uiso  ? C
   H672       1.0     0.784010     0.216444     0.640527    Uiso  ? H
   C963       1.0     0.771386     0.262054     0.645438    Uiso  ? C
   H673       1.0     0.754995     0.265976     0.630370    Uiso  ? H
   N56        1.0     0.734330     0.368248     0.826159    Uiso  ? N
   C964       1.0     0.743017     0.341172     0.830735    Uiso  ? C
   H674       1.0     0.732685     0.326332     0.844925    Uiso  ? H
   H675       1.0     0.749632     0.398852     0.794111    Uiso  ? H
   H676       1.0     0.812645     0.280425     0.696186    Uiso  ? H
   C965       1.0     0.218736     0.749716     0.351282    Uiso  ? C
   H677       1.0     0.236065     0.748783     0.366224    Uiso  ? H
   C966       1.0     0.183832     0.739166     0.323732    Uiso  ? C
   N57        1.0     0.202596     0.727193     0.342142    Uiso  ? N
   C967       1.0     0.207785     0.696732     0.347249    Uiso  ? C
   H678       1.0     0.227064     0.694280     0.361606    Uiso  ? H
   H679       1.0     0.188995     0.688260     0.359310    Uiso  ? H
   C968       1.0     0.213033     0.681471     0.319580    Uiso  ? C
   C969       1.0     0.237521     0.685955     0.304098    Uiso  ? C
   C970       1.0     0.190373     0.665379     0.307764    Uiso  ? C
   C971       1.0     0.238750     0.676725     0.275442    Uiso  ? C
   H680       1.0     0.255373     0.698161     0.313457    Uiso  ? H
   C972       1.0     0.191192     0.656599     0.278614    Uiso  ? C
   H681       1.0     0.169810     0.661777     0.318790    Uiso  ? H
   C973       1.0     0.215054     0.663718     0.261525    Uiso  ? C
   H682       1.0     0.257492     0.681823     0.261909    Uiso  ? H
   H683       1.0     0.173095     0.644475     0.270098    Uiso  ? H
   C974       1.0     0.213059     0.660959     0.230261    Uiso  ? C
   H684       1.0     0.190530     0.664210     0.224855    Uiso  ? H
   H685       1.0     0.226607     0.678166     0.219462    Uiso  ? H
   N58        1.0     0.223370     0.633030     0.219364    Uiso  ? N
   C975       1.0     0.251000     0.626976     0.213389    Uiso  ? C
   N59        1.0     0.253051     0.603014     0.196903    Uiso  ? N
   C976       1.0     0.226237     0.593049     0.194247    Uiso  ? C
   H686       1.0     0.221656     0.573731     0.184245    Uiso  ? H
   C977       1.0     0.207827     0.611582     0.207878    Uiso  ? C
   H687       1.0     0.184549     0.609548     0.208395    Uiso  ? H
   N60        1.0     0.186677     0.768387     0.321702    Uiso  ? N
   C978       1.0     0.209011     0.774599     0.338633    Uiso  ? C
   H688       1.0     0.217230     0.796896     0.341298    Uiso  ? H
   H689       1.0     0.168499     0.727811     0.311321    Uiso  ? H
   H690       1.0     0.268534     0.641338     0.218895    Uiso  ? H
   C979       1.0     0.438032     0.254125     0.284064    Uiso  ? C
   H691       1.0     0.450429     0.234055     0.286362    Uiso  ? H
   C980       1.0     0.405583     0.284910     0.271533    Uiso  ? C
   N61        1.0     0.410671     0.256096     0.274151    Uiso  ? N
   C981       1.0     0.393857     0.233801     0.260436    Uiso  ? C
   H692       1.0     0.401988     0.212640     0.267061    Uiso  ? H
   H693       1.0     0.371472     0.237068     0.267377    Uiso  ? H
   C982       1.0     0.397020     0.237171     0.228010    Uiso  ? C
   C983       1.0     0.377494     0.254619     0.213436    Uiso  ? C
   C984       1.0     0.420189     0.225245     0.213082    Uiso  ? C
   C985       1.0     0.382004     0.261777     0.184612    Uiso  ? C
   H694       1.0     0.358047     0.263089     0.223970    Uiso  ? H
   C986       1.0     0.423828     0.231441     0.183029    Uiso  ? C
   H695       1.0     0.436001     0.211863     0.223279    Uiso  ? H
   C987       1.0     0.405600     0.251530     0.169249    Uiso  ? C
   H696       1.0     0.366564     0.276076     0.174469    Uiso  ? H
   H697       1.0     0.442411     0.221989     0.171204    Uiso  ? H
   C988       1.0     0.409049     0.258255     0.138119    Uiso  ? C
   H698       1.0     0.399106     0.279869     0.133716    Uiso  ? H
   H699       1.0     0.431082     0.260858     0.130730    Uiso  ? H
   N62        1.0     0.394662     0.236014     0.121295    Uiso  ? N
   C989       1.0     0.366412     0.231551     0.119804    Uiso  ? C
   N63        1.0     0.360299     0.210611     0.100860    Uiso  ? N
   C990       1.0     0.385938     0.200570     0.891177    Uiso  ? C
   H700       1.0     0.388466     0.182184     0.878500    Uiso  ? H
   C991       1.0     0.407422     0.217090     0.103615    Uiso  ? C
   H701       1.0     0.430369     0.213551     0.102328    Uiso  ? H
   N64        1.0     0.428447     0.300581     0.279675    Uiso  ? N
   C992       1.0     0.448650     0.281544     0.287718    Uiso  ? C
   H702       1.0     0.470999     0.287248     0.291205    Uiso  ? H
   H703       1.0     0.387317     0.293990     0.259693    Uiso  ? H
   H704       1.0     0.349862     0.243281     0.130552    Uiso  ? H
   C993       1.0     0.793382     0.807028     0.529928    Uiso  ? C
   H705       1.0     0.813527     0.817210     0.534666    Uiso  ? H
   C994       1.0     0.762589     0.774154     0.518361    Uiso  ? C
   N65        1.0     0.791060     0.780762     0.518618    Uiso  ? N
   C995       1.0     0.814350     0.761034     0.510805    Uiso  ? C
   H706       1.0     0.806827     0.746211     0.492960    Uiso  ? H
   H707       1.0     0.833460     0.774137     0.504607    Uiso  ? H
   C996       1.0     0.820301     0.742257     0.537380    Uiso  ? C
   C997       1.0     0.802916     0.718927     0.543222    Uiso  ? C
   C998       1.0     0.840685     0.751307     0.557951    Uiso  ? C
   C999       1.0     0.807443     0.702007     0.567998    Uiso  ? C
   H708       1.0     0.785882     0.712395     0.528457    Uiso  ? H
   C1000      1.0     0.845624     0.734199     0.582342    Uiso  ? C
   H709       1.0     0.854911     0.769904     0.554519    Uiso  ? H
   C1001      1.0     0.829040     0.709973     0.587314    Uiso  ? C
   H710       1.0     0.792813     0.684572     0.572542    Uiso  ? H
   H711       1.0     0.863667     0.739903     0.596145    Uiso  ? H
   C1002      1.0     0.829925     0.694763     0.616494    Uiso  ? C
   H712       1.0     0.818267     0.673428     0.614194    Uiso  ? H
   H713       1.0     0.852926     0.692240     0.621835    Uiso  ? H
   N66        1.0     0.815409     0.712254     0.638014    Uiso  ? N
   C1003      1.0     0.828769     0.730238     0.655696    Uiso  ? C
   N67        1.0     0.809784     0.743734     0.673133    Uiso  ? N
   C1004      1.0     0.783215     0.732558     0.666758    Uiso  ? C
   H714       1.0     0.762986     0.739684     0.676135    Uiso  ? H
   C1005      1.0     0.787012     0.712488     0.644942    Uiso  ? C
   H715       1.0     0.771300     0.699426     0.633901    Uiso  ? H
   N68        1.0     0.747143     0.796911     0.527520    Uiso  ? N
   C1006      1.0     0.765933     0.817473     0.535222    Uiso  ? C
   H716       1.0     0.761412     0.837817     0.547041    Uiso  ? H
   H717       1.0     0.752581     0.753725     0.511198    Uiso  ? H
   H718       1.0     0.852477     0.734141     0.655825    Uiso  ? H
   C1007      1.0     0.372389     0.731029     0.103935    Uiso  ? C
   H719       1.0     0.391385     0.732128     0.117579    Uiso  ? H
   C1008      1.0     0.344095     0.736550     0.868753    Uiso  ? C
   N69        1.0     0.372073     0.731351     0.875336    Uiso  ? N
   C1009      1.0     0.396797     0.737966     0.855174    Uiso  ? C
   H720       1.0     0.416800     0.736316     0.868801    Uiso  ? H
   H721       1.0     0.396986     0.721235     0.837986    Uiso  ? H
   C1010      1.0     0.394982     0.768173     0.844113    Uiso  ? C
   C1011      1.0     0.402559     0.790904     0.862390    Uiso  ? C
   C1012      1.0     0.382889     0.773578     0.817063    Uiso  ? C
   C1013      1.0     0.396355     0.818735     0.853870    Uiso  ? C
   H722       1.0     0.412638     0.786842     0.883072    Uiso  ? H
   C1014      1.0     0.376699     0.801790     0.808524    Uiso  ? C
   H723       1.0     0.376892     0.755192     0.803819    Uiso  ? H
   C1015      1.0     0.382758     0.824611     0.827675    Uiso  ? C
   H724       1.0     0.400852     0.835414     0.868206    Uiso  ? H
   H725       1.0     0.366916     0.803734     0.788375    Uiso  ? H
   C1016      1.0     0.375365     0.854374     0.818702    Uiso  ? C
   H726       1.0     0.356270     0.855216     0.803518    Uiso  ? H
   H727       1.0     0.368877     0.868027     0.837254    Uiso  ? H
   N70        1.0     0.400317     0.866680     0.804965    Uiso  ? N
   C1017      1.0     0.405635     0.868177     0.776202    Uiso  ? C
   N71        1.0     0.430569     0.882487     0.770843    Uiso  ? N
   C1018      1.0     0.440268     0.891327     0.796368    Uiso  ? C
   H728       1.0     0.462013     0.108080     0.799618    Uiso  ? H
   C1019      1.0     0.422133     0.881069     0.817235    Uiso  ? C
   H729       1.0     0.425425     0.885257     0.840293    Uiso  ? H
   N72        1.0     0.326942     0.737678     0.891764    Uiso  ? N
   C1020      1.0     0.344737     0.734933     0.114165    Uiso  ? C
   H730       1.0     0.338724     0.737759     0.137020    Uiso  ? H
   H731       1.0     0.336119     0.744469     0.848424    Uiso  ? H
   H732       1.0     0.391537     0.858946     0.759937    Uiso  ? H
   C1021      1.0     0.141174     0.282695     0.341317    Uiso  ? C
   H733       1.0     0.132017     0.287682     0.361761    Uiso  ? H
   C1022      1.0     0.170860     0.281061     0.305382    Uiso  ? C
   N73        1.0     0.164198     0.295779     0.329211    Uiso  ? N
   C1023      1.0     0.180402     0.320690     0.339595    Uiso  ? C
   H734       1.0     0.197613     0.327041     0.324462    Uiso  ? H
   H735       1.0     0.165606     0.339287     0.341156    Uiso  ? H
   C1024      1.0     0.192280     0.314968     0.369175    Uiso  ? C
   C1025      1.0     0.177771     0.322930     0.394051    Uiso  ? C
   C1026      1.0     0.220031     0.302093     0.371808    Uiso  ? C
   C1027      1.0     0.189211     0.319446     0.420899    Uiso  ? C
   H736       1.0     0.157339     0.333024     0.393405    Uiso  ? H
   C1028      1.0     0.232262     0.299426     0.399266    Uiso  ? C
   H737       1.0     0.231830     0.297203     0.352268    Uiso  ? H
   C1029      1.0     0.216386     0.306350     0.424370    Uiso  ? C
   H738       1.0     0.177928     0.325965     0.440054    Uiso  ? H
   H739       1.0     0.254904     0.293013     0.401847    Uiso  ? H
   C1030      1.0     0.228821     0.303158     0.453778    Uiso  ? C
   H740       1.0     0.248665     0.315340     0.455956    Uiso  ? H
   H741       1.0     0.213635     0.311008     0.470860    Uiso  ? H
   N74        1.0     0.235041     0.272550     0.459531    Uiso  ? N
   C1031      1.0     0.260948     0.259711     0.459244    Uiso  ? C
   N75        1.0     0.258124     0.231435     0.463881    Uiso  ? N
   C1032      1.0     0.230064     0.226044     0.465938    Uiso  ? C
   H742       1.0     0.221293     0.206127     0.471419    Uiso  ? H
   C1033      1.0     0.215312     0.251586     0.463283    Uiso  ? C
   H743       1.0     0.192946     0.254211     0.464572    Uiso  ? H
   N76        1.0     0.152120     0.259724     0.300969    Uiso  ? N
   C1034      1.0     0.134193     0.260115     0.323635    Uiso  ? C
   H744       1.0     0.119775     0.242618     0.328221    Uiso  ? H
   H745       1.0     0.186928     0.287592     0.290187    Uiso  ? H
   H746       1.0     0.280458     0.270954     0.453475    Uiso  ? H
   C1035      1.0     0.575312     0.132841     0.189837    Uiso  ? C
   H747       1.0     0.568553     0.133993     0.166964    Uiso  ? H
   C1036      1.0     0.599595     0.138024     0.228472    Uiso  ? C
   N77        1.0     0.600304     0.142259     0.200198    Uiso  ? N
   C1037      1.0     0.624921     0.153557     0.183815    Uiso  ? C
   H748       1.0     0.642398     0.156542     0.199126    Uiso  ? H
   H749       1.0     0.632367     0.138282     0.167713    Uiso  ? H
   C1038      1.0     0.618078     0.182103     0.171069    Uiso  ? C
   C1039      1.0     0.610188     0.184033     0.141755    Uiso  ? C
   C1040      1.0     0.619509     0.206906     0.188141    Uiso  ? C
   C1041      1.0     0.604973     0.211259     0.130389    Uiso  ? C
   H750       1.0     0.608671     0.165357     0.129313    Uiso  ? H
   C1042      1.0     0.613946     0.233608     0.176021    Uiso  ? C
   H751       1.0     0.626111     0.205233     0.209785    Uiso  ? H
   C1043      1.0     0.605796     0.236076     0.147225    Uiso  ? C
   H752       1.0     0.601994     0.211786     0.107506    Uiso  ? H
   H753       1.0     0.616360     0.253216     0.189253    Uiso  ? H
   C1044      1.0     0.605117     0.266175     0.134023    Uiso  ? C
   H754       1.0     0.590350     0.267335     0.115224    Uiso  ? H
   H755       1.0     0.595008     0.282137     0.149823    Uiso  ? H
   N78        1.0     0.633580     0.275563     0.124816    Uiso  ? N
   C1045      1.0     0.657467     0.259019     0.121519    Uiso  ? C
   N79        1.0     0.680202     0.274365     0.112878    Uiso  ? N
   C1046      1.0     0.670494     0.301752     0.110841    Uiso  ? C
   H756       1.0     0.682377     0.319945     0.103283    Uiso  ? H
   C1047      1.0     0.641866     0.302244     0.118312    Uiso  ? C
   H757       1.0     0.627358     0.321087     0.117624    Uiso  ? H
   N80        1.0     0.574047     0.127309     0.236938    Uiso  ? N
   C1048      1.0     0.558551     0.124202     0.212942    Uiso  ? C
   H758       1.0     0.536344     0.117513     0.211915    Uiso  ? H
   H759       1.0     0.617157     0.143858     0.242468    Uiso  ? H
   H760       1.0     0.658903     0.236237     0.125295    Uiso  ? H
   C1049      1.0     0.228140     0.222634     0.583259    Uiso  ? C
   H761       1.0     0.245837     0.215241     0.596276    Uiso  ? H
   C1050      1.0     0.201820     0.229998     0.545419    Uiso  ? C
   N81        1.0     0.221394     0.212114     0.556965    Uiso  ? N
   C1051      1.0     0.239364     0.192867     0.539199    Uiso  ? C
   H762       1.0     0.225209     0.182719     0.522566    Uiso  ? H
   H763       1.0     0.254999     0.206764     0.526588    Uiso  ? H
   C1052      1.0     0.254804     0.171575     0.556965    Uiso  ? C
   C1053      1.0     0.240915     0.146109     0.565354    Uiso  ? C
   C1054      1.0     0.282418     0.177380     0.567869    Uiso  ? C
   C1055      1.0     0.255010     0.126493     0.582391    Uiso  ? C
   H764       1.0     0.219721     0.140531     0.558548    Uiso  ? H
   C1056      1.0     0.296724     0.157502     0.585067    Uiso  ? C
   H765       1.0     0.293140     0.197742     0.562448    Uiso  ? H
   C1057      1.0     0.283002     0.131841     0.592105    Uiso  ? C
   H766       1.0     0.243664     0.106375     0.588705    Uiso  ? H
   H767       1.0     0.318237     0.162386     0.590645    Uiso  ? H
   C1058      1.0     0.298839     0.109163     0.609033    Uiso  ? C
   H768       1.0     0.306131     0.886196     0.594740    Uiso  ? H
   H769       1.0     0.317956     0.117633     0.620424    Uiso  ? H
   N82        1.0     0.278125     0.889471     0.630211    Uiso  ? N
   C1059      1.0     0.270323     0.105223     0.655934    Uiso  ? C
   N83        1.0     0.251324     0.881690     0.669821    Uiso  ? N
   C1060      1.0     0.248844     0.859408     0.651194    Uiso  ? C
   H770       1.0     0.234545     0.841797     0.654119    Uiso  ? H
   C1061      1.0     0.265946     0.863882     0.627344    Uiso  ? C
   H771       1.0     0.269247     0.848648     0.610255    Uiso  ? H
   N84        1.0     0.194261     0.250890     0.563996    Uiso  ? N
   C1062      1.0     0.210355     0.246198     0.587670    Uiso  ? C
   H772       1.0     0.211165     0.260259     0.605730    Uiso  ? H
   H773       1.0     0.193337     0.229412     0.523811    Uiso  ? H
   H774       1.0     0.278522     0.124122     0.666361    Uiso  ? H
   C1063      1.0     0.850162     0.588649     0.129717    Uiso  ? C
   H775       1.0     0.856842     0.568164     0.140216    Uiso  ? H
   C1064      1.0     0.827627     0.619511     0.103684    Uiso  ? C
   N85        1.0     0.825584     0.593240     0.114962    Uiso  ? N
   C1065      1.0     0.802649     0.571955     0.108168    Uiso  ? C
   H776       1.0     0.791428     0.565233     0.128651    Uiso  ? H
   H777       1.0     0.785998     0.580661     0.894614    Uiso  ? H
   C1066      1.0     0.815325     0.545306     0.891530    Uiso  ? C
   C1067      1.0     0.827644     0.549196     0.864656    Uiso  ? C
   C1068      1.0     0.813272     0.518068     0.102563    Uiso  ? C
   C1069      1.0     0.835837     0.526383     0.847852    Uiso  ? C
   H778       1.0     0.829667     0.571199     0.856014    Uiso  ? H
   C1070      1.0     0.823855     0.494280     0.886689    Uiso  ? C
   H779       1.0     0.804116     0.513684     0.123312    Uiso  ? H
   C1071      1.0     0.835657     0.498584     0.859315    Uiso  ? C
   H780       1.0     0.843743     0.529671     0.826998    Uiso  ? H
   H781       1.0     0.821927     0.472472     0.895307    Uiso  ? H
   C1072      1.0     0.843934     0.473192     0.840692    Uiso  ? C
   H782       1.0     0.867260     0.474526     0.838297    Uiso  ? H
   H783       1.0     0.838631     0.452441     0.852380    Uiso  ? H
   N86        1.0     0.829353     0.472956     0.812950    Uiso  ? N
   C1073      1.0     0.838526     0.484201     0.788053    Uiso  ? C
   N87        1.0     0.820383     0.477943     0.766413    Uiso  ? N
   C1074      1.0     0.798414     0.462426     0.778399    Uiso  ? C
   H784       1.0     0.779373     0.454574     0.767699    Uiso  ? H
   C1075      1.0     0.804363     0.458989     0.807105    Uiso  ? C
   H785       1.0     0.792413     0.447027     0.822740    Uiso  ? H
   N88        1.0     0.852976     0.632601     0.110395    Uiso  ? N
   C1076      1.0     0.866828     0.613570     0.126807    Uiso  ? C
   H786       1.0     0.887244     0.617077     0.136918    Uiso  ? H
   H787       1.0     0.810506     0.628351     0.892702    Uiso  ? H
   H788       1.0     0.857756     0.496455     0.786304    Uiso  ? H
   C1077      1.0     0.785455     0.788790     0.426790    Uiso  ? C
   H789       1.0     0.780603     0.811523     0.425184    Uiso  ? H
   C1078      1.0     0.779813     0.743397     0.427304    Uiso  ? C
   N89        1.0     0.765020     0.768398     0.425703    Uiso  ? N
   C1079      1.0     0.733546     0.771729     0.428983    Uiso  ? C
   H790       1.0     0.723039     0.751228     0.422166    Uiso  ? H
   H791       1.0     0.727244     0.776585     0.451667    Uiso  ? H
   C1080      1.0     0.723265     0.796146     0.409856    Uiso  ? C
   C1081      1.0     0.717266     0.823026     0.422473    Uiso  ? C
   C1082      1.0     0.716446     0.791097     0.380847    Uiso  ? C
   C1083      1.0     0.704610     0.845171     0.406411    Uiso  ? C
   H792       1.0     0.722784     0.827015     0.444442    Uiso  ? H
   C1084      1.0     0.705244     0.813731     0.364460    Uiso  ? C
   H793       1.0     0.717604     0.769433     0.371739    Uiso  ? H
   C1085      1.0     0.698481     0.840717     0.377218    Uiso  ? C
   H794       1.0     0.702467     0.865278     0.416793    Uiso  ? H
   H795       1.0     0.700474     0.810207     0.342284    Uiso  ? H
   C1086      1.0     0.685582     0.864498     0.359742    Uiso  ? C
   H796       1.0     0.668738     0.854599     0.344960    Uiso  ? H
   H797       1.0     0.673211     0.880533     0.373073    Uiso  ? H
   N90        1.0     0.707911     0.878378     0.343198    Uiso  ? N
   C1087      1.0     0.716345     0.871291     0.316595    Uiso  ? C
   N91        1.0     0.739628     0.885947     0.308404    Uiso  ? N
   C1088      1.0     0.747241     0.108987     0.330952    Uiso  ? C
   H798       1.0     0.764466     0.123804     0.331212    Uiso  ? H
   C1089      1.0     0.727930     0.103920     0.352358    Uiso  ? C
   H799       1.0     0.730659     0.111869     0.374484    Uiso  ? H
   N92        1.0     0.807784     0.747153     0.427366    Uiso  ? N
   C1090      1.0     0.811609     0.775584     0.427276    Uiso  ? C
   H800       1.0     0.831761     0.786958     0.427656    Uiso  ? H
   H801       1.0     0.769401     0.722339     0.427546    Uiso  ? H
   H802       1.0     0.705246     0.856094     0.303806    Uiso  ? H
   C1091      1.0     0.163293     0.482936     0.187711    Uiso  ? C
   H803       1.0     0.153004     0.468856     0.172598    Uiso  ? H
   C1092      1.0     0.189607     0.512885     0.208874    Uiso  ? C
   N93        1.0     0.180784     0.505192     0.182787    Uiso  ? N
   C1093      1.0     0.189531     0.518628     0.155884    Uiso  ? C
   H804       1.0     0.176205     0.538133     0.152220    Uiso  ? H
   H805       1.0     0.212297     0.525578     0.157611    Uiso  ? H
   C1094      1.0     0.186926     0.498302     0.130778    Uiso  ? C
   C1095      1.0     0.160523     0.495790     0.117844    Uiso  ? C
   C1096      1.0     0.210265     0.484579     0.119340    Uiso  ? C
   C1097      1.0     0.156598     0.476710     0.894837    Uiso  ? C
   H806       1.0     0.142773     0.506693     0.127117    Uiso  ? H
   C1098      1.0     0.207185     0.465003     0.895902    Uiso  ? C
   H807       1.0     0.230926     0.487629     0.127747    Uiso  ? H
   C1099      1.0     0.180361     0.462282     0.882838    Uiso  ? C
   H808       1.0     0.135577     0.475488     0.883504    Uiso  ? H
   H809       1.0     0.226502     0.454451     0.887062    Uiso  ? H
   C1100      1.0     0.178160     0.447383     0.854237    Uiso  ? C
   H810       1.0     0.175033     0.465353     0.838222    Uiso  ? H
   H811       1.0     0.198966     0.437822     0.849351    Uiso  ? H
   N94        1.0     0.156064     0.425509     0.852622    Uiso  ? N
   C1101      1.0     0.156912     0.399325     0.865100    Uiso  ? C
   N95        1.0     0.138548     0.380670     0.852886    Uiso  ? N
   C1102      1.0     0.125396     0.396082     0.832000    Uiso  ? C
   H812       1.0     0.111377     0.387047     0.816696    Uiso  ? H
   C1103      1.0     0.135753     0.423690     0.831655    Uiso  ? C
   H813       1.0     0.131180     0.440214     0.815272    Uiso  ? H
   N96        1.0     0.178763     0.496752     0.231199    Uiso  ? N
   C1104      1.0     0.161376     0.478374     0.216634    Uiso  ? C
   H814       1.0     0.149029     0.461451     0.227091    Uiso  ? H
   H815       1.0     0.203549     0.531624     0.211613    Uiso  ? H
   H816       1.0     0.170792     0.392278     0.882505    Uiso  ? H
