
#======================================================================
# CRYSTAL DATA
#----------------------------------------------------------------------
data_VESTA_phase_1

_chemical_name_common                  ' Atoms. Timestep: 0'
_cell_length_a                         67.064217
_cell_length_b                         67.064217
_cell_length_c                         67.064217
_cell_angle_alpha                      90.000000
_cell_angle_beta                       90.000000
_cell_angle_gamma                      90.000000
_cell_volume                           1.000000
_space_group_name_H-M_alt              'P 1'
_space_group_IT_number                 1

loop_
_space_group_symop_operation_xyz
   'x, y, z'

loop_
   _atom_site_label
   _atom_site_occupancy
   _atom_site_fract_x
   _atom_site_fract_y
   _atom_site_fract_z
   _atom_site_adp_type
   _atom_site_U_iso_or_equiv
   _atom_site_type_symbol
   C1         1.0     0.870742     0.218001     0.183246    Uiso  ? C
   C2         1.0     0.853695     0.227585     0.173048    Uiso  ? C
   C3         1.0     0.844116     0.244020     0.183326    Uiso  ? C
   H1         1.0     0.848768     0.248365     0.198647    Uiso  ? H
   C4         1.0     0.828340     0.254229     0.173019    Uiso  ? C
   H2         1.0     0.822945     0.269367     0.178366    Uiso  ? H
   C5         1.0     0.822502     0.247872     0.154459    Uiso  ? C
   H3         1.0     0.810444     0.255548     0.148339    Uiso  ? H
   C6         1.0     0.829239     0.228819     0.146767    Uiso  ? C
   C7         1.0     0.845902     0.219744     0.155429    Uiso  ? C
   H4         1.0     0.852372     0.206284     0.147849    Uiso  ? H
   C8         1.0     0.818396     0.218935     0.130464    Uiso  ? C
   C9         1.0     0.870153     0.184881     0.219585    Uiso  ? C
   C10        1.0     0.851464     0.176192     0.226807    Uiso  ? C
   C11        1.0     0.841326     0.186632     0.242122    Uiso  ? C
   H5         1.0     0.845571     0.200892     0.246363    Uiso  ? H
   C12        1.0     0.823312     0.177973     0.249264    Uiso  ? C
   H6         1.0     0.815051     0.186739     0.260600    Uiso  ? H
   C13        1.0     0.815348     0.161624     0.240432    Uiso  ? C
   H7         1.0     0.800716     0.157166     0.243402    Uiso  ? H
   C14        1.0     0.825490     0.151359     0.225667    Uiso  ? C
   C15        1.0     0.843352     0.158224     0.218833    Uiso  ? C
   H8         1.0     0.850381     0.151056     0.206280    Uiso  ? H
   C16        1.0     0.815686     0.133524     0.217027    Uiso  ? C
   C17        1.0     0.133832     0.182233     0.220520    Uiso  ? C
   C18        1.0     0.149885     0.170362     0.230777    Uiso  ? C
   C19        1.0     0.156027     0.174955     0.250345    Uiso  ? C
   H9         1.0     0.148441     0.185749     0.259951    Uiso  ? H
   C20        1.0     0.172327     0.165281     0.258534    Uiso  ? C
   H10        1.0     0.176032     0.168444     0.273817    Uiso  ? H
   C21        1.0     0.181503     0.150251     0.247803    Uiso  ? C
   H11        1.0     0.192628     0.141172     0.254775    Uiso  ? H
   C22        1.0     0.174165     0.143962     0.228873    Uiso  ? C
   C23        1.0     0.159220     0.156091     0.220032    Uiso  ? C
   H12        1.0     0.154242     0.151417     0.204550    Uiso  ? H
   C24        1.0     0.184847     0.127023     0.218977    Uiso  ? C
   C25        1.0     0.132398     0.217293     0.184561    Uiso  ? C
   C26        1.0     0.147780     0.228759     0.171808    Uiso  ? C
   C27        1.0     0.148635     0.249660     0.171571    Uiso  ? C
   H13        1.0     0.139036     0.257957     0.182663    Uiso  ? H
   C28        1.0     0.163576     0.259239     0.160847    Uiso  ? C
   H14        1.0     0.165931     0.274359     0.163585    Uiso  ? H
   C29        1.0     0.174946     0.248298     0.147411    Uiso  ? C
   H15        1.0     0.186467     0.255669     0.138319    Uiso  ? H
   C30        1.0     0.170633     0.228281     0.144147    Uiso  ? C
   C31        1.0     0.158051     0.217767     0.157411    Uiso  ? C
   H16        1.0     0.156738     0.201148     0.157190    Uiso  ? H
   C32        1.0     0.182329     0.218166     0.127506    Uiso  ? C
   C33        1.0     0.780377     0.184376     0.872046    Uiso  ? C
   C34        1.0     0.770952     0.176785     0.854396    Uiso  ? C
   C35        1.0     0.754177     0.187670     0.846477    Uiso  ? C
   H17        1.0     0.749122     0.200628     0.853461    Uiso  ? H
   C36        1.0     0.745428     0.181543     0.828287    Uiso  ? C
   H18        1.0     0.733398     0.190056     0.822433    Uiso  ? H
   C37        1.0     0.753192     0.164903     0.818518    Uiso  ? C
   H19        1.0     0.744666     0.160202     0.807442    Uiso  ? H
   C38        1.0     0.768563     0.153338     0.826973    Uiso  ? C
   C39        1.0     0.776771     0.159547     0.845488    Uiso  ? C
   H20        1.0     0.786566     0.149445     0.852990    Uiso  ? H
   C40        1.0     0.775866     0.134077     0.818022    Uiso  ? C
   C41        1.0     0.779907     0.185388     0.131102    Uiso  ? C
   C42        1.0     0.768417     0.173970     0.146830    Uiso  ? C
   C43        1.0     0.749247     0.179484     0.152168    Uiso  ? C
   H21        1.0     0.742958     0.193322     0.145561    Uiso  ? H
   C44        1.0     0.739298     0.169040     0.165910    Uiso  ? C
   H22        1.0     0.724217     0.174057     0.169271    Uiso  ? H
   C45        1.0     0.747813     0.152321     0.175203    Uiso  ? C
   H23        1.0     0.740074     0.145963     0.188078    Uiso  ? H
   C46        1.0     0.767755     0.147280     0.171871    Uiso  ? C
   C47        1.0     0.777426     0.157719     0.157216    Uiso  ? C
   H24        1.0     0.792058     0.152514     0.151960    Uiso  ? H
   C48        1.0     0.778552     0.130881     0.182869    Uiso  ? C
   C49        1.0     0.817289     0.219907     0.873663    Uiso  ? C
   C50        1.0     0.827639     0.227006     0.855201    Uiso  ? C
   C51        1.0     0.817328     0.241063     0.844947    Uiso  ? C
   H25        1.0     0.804543     0.246808     0.850518    Uiso  ? H
   C52        1.0     0.823789     0.248353     0.827563    Uiso  ? C
   H26        1.0     0.815415     0.260462     0.820803    Uiso  ? H
   C53        1.0     0.840310     0.239705     0.817387    Uiso  ? C
   H27        1.0     0.845426     0.246512     0.804062    Uiso  ? H
   C54        1.0     0.851412     0.225376     0.827352    Uiso  ? C
   C55        1.0     0.844591     0.218226     0.846442    Uiso  ? C
   H28        1.0     0.851728     0.205739     0.854955    Uiso  ? H
   C56        1.0     0.868218     0.216826     0.817838    Uiso  ? C
   C57        1.0     0.778534     0.869442     0.185074    Uiso  ? C
   C58        1.0     0.767767     0.851764     0.176397    Uiso  ? C
   C59        1.0     0.748883     0.845914     0.183683    Uiso  ? C
   H29        1.0     0.741866     0.854695     0.195365    Uiso  ? H
   C60        1.0     0.738748     0.829327     0.174603    Uiso  ? C
   H30        1.0     0.725227     0.821312     0.181374    Uiso  ? H
   C61        1.0     0.746019     0.820372     0.158567    Uiso  ? C
   H31        1.0     0.741754     0.806501     0.154081    Uiso  ? H
   C62        1.0     0.765360     0.826707     0.150608    Uiso  ? C
   C63        1.0     0.774805     0.842787     0.159554    Uiso  ? C
   H32        1.0     0.789361     0.847912     0.155138    Uiso  ? H
   C64        1.0     0.773735     0.815792     0.132607    Uiso  ? C
   C65        1.0     0.812437     0.870622     0.223695    Uiso  ? C
   C66        1.0     0.821186     0.851658     0.230517    Uiso  ? C
   C67        1.0     0.810429     0.840855     0.244605    Uiso  ? C
   H33        1.0     0.796743     0.844944     0.251869    Uiso  ? H
   C68        1.0     0.818093     0.822277     0.252178    Uiso  ? C
   H34        1.0     0.807922     0.814113     0.261271    Uiso  ? H
   C69        1.0     0.835390     0.814971     0.244390    Uiso  ? C
   H35        1.0     0.838350     0.799003     0.246968    Uiso  ? H
   C70        1.0     0.845862     0.825325     0.229725    Uiso  ? C
   C71        1.0     0.839340     0.843101     0.223101    Uiso  ? C
   H36        1.0     0.849655     0.850626     0.212825    Uiso  ? H
   C72        1.0     0.864787     0.816428     0.221484    Uiso  ? C
   C73        1.0     0.864721     0.182993     0.783440    Uiso  ? C
   C74        1.0     0.846001     0.175251     0.775123    Uiso  ? C
   C75        1.0     0.838229     0.183335     0.758094    Uiso  ? C
   H37        1.0     0.844144     0.196981     0.753041    Uiso  ? H
   C76        1.0     0.821737     0.175310     0.748129    Uiso  ? C
   H38        1.0     0.817197     0.180207     0.733727    Uiso  ? H
   C77        1.0     0.811319     0.159529     0.758064    Uiso  ? C
   H39        1.0     0.797007     0.155471     0.752236    Uiso  ? H
   C78        1.0     0.819310     0.150802     0.774544    Uiso  ? C
   C79        1.0     0.835315     0.159541     0.783388    Uiso  ? C
   H40        1.0     0.840304     0.152731     0.796530    Uiso  ? H
   C80        1.0     0.810002     0.132103     0.783081    Uiso  ? C
   C81        1.0     0.132323     0.214139     0.818700    Uiso  ? C
   C82        1.0     0.149958     0.223550     0.828203    Uiso  ? C
   C83        1.0     0.159462     0.238769     0.817803    Uiso  ? C
   H41        1.0     0.153253     0.244429     0.803815    Uiso  ? H
   C84        1.0     0.176296     0.247117     0.826882    Uiso  ? C
   H42        1.0     0.183168     0.259022     0.817591    Uiso  ? H
   C85        1.0     0.183370     0.240110     0.845437    Uiso  ? C
   H43        1.0     0.196905     0.246793     0.848839    Uiso  ? H
   C86        1.0     0.173844     0.225082     0.855832    Uiso  ? C
   C87        1.0     0.157245     0.216438     0.846727    Uiso  ? C
   H44        1.0     0.149637     0.204799     0.855531    Uiso  ? H
   C88        1.0     0.183651     0.215785     0.873032    Uiso  ? C
   C89        1.0     0.218436     0.182251     0.132872    Uiso  ? C
   C90        1.0     0.225664     0.175577     0.152984    Uiso  ? C
   C91        1.0     0.236017     0.189918     0.164834    Uiso  ? C
   H45        1.0     0.239575     0.204519     0.160278    Uiso  ? H
   C92        1.0     0.242983     0.183841     0.183816    Uiso  ? C
   H46        1.0     0.250263     0.193177     0.194550    Uiso  ? H
   C93        1.0     0.238143     0.164688     0.191294    Uiso  ? C
   H47        1.0     0.241655     0.161001     0.206991    Uiso  ? H
   C94        1.0     0.227183     0.150497     0.178954    Uiso  ? C
   C95        1.0     0.220431     0.156442     0.159957    Uiso  ? C
   H48        1.0     0.211420     0.147035     0.150123    Uiso  ? H
   C96        1.0     0.221287     0.130154     0.186664    Uiso  ? C
   O1         1.0     0.881194     0.206629     0.173443    Uiso  ? O
   O2         1.0     0.873382     0.220862     0.202377    Uiso  ? O
   O3         1.0     0.881198     0.174367     0.209132    Uiso  ? O
   O4         1.0     0.871430     0.203361     0.220680    Uiso  ? O
   O5         1.0     0.131483     0.182027     0.201699    Uiso  ? O
   O6         1.0     0.120170     0.190826     0.230253    Uiso  ? O
   O7         1.0     0.129373     0.198525     0.182953    Uiso  ? O
   O8         1.0     0.121562     0.227488     0.195459    Uiso  ? O
   O9         1.0     0.792987     0.173636     0.881041    Uiso  ? O
   O10        1.0     0.778282     0.201312     0.878404    Uiso  ? O
   O11        1.0     0.798294     0.182763     0.128875    Uiso  ? O
   O12        1.0     0.770884     0.197276     0.120077    Uiso  ? O
   O13        1.0     0.818561     0.200538     0.128414    Uiso  ? O
   O14        1.0     0.808286     0.230490     0.118620    Uiso  ? O
   O15        1.0     0.825970     0.206342     0.883443    Uiso  ? O
   O16        1.0     0.798555     0.223281     0.876712    Uiso  ? O
   O17        1.0     0.788778     0.882273     0.176130    Uiso  ? O
   O18        1.0     0.776048     0.872390     0.204430    Uiso  ? O
   O19        1.0     0.823130     0.882051     0.213577    Uiso  ? O
   O20        1.0     0.793333     0.872022     0.220691    Uiso  ? O
   O21        1.0     0.815600     0.131028     0.198630    Uiso  ? O
   O22        1.0     0.805275     0.122299     0.227855    Uiso  ? O
   O23        1.0     0.797780     0.129588     0.183978    Uiso  ? O
   O24        1.0     0.767573     0.119942     0.193137    Uiso  ? O
   O25        1.0     0.876096     0.171573     0.793566    Uiso  ? O
   O26        1.0     0.869244     0.201496     0.782058    Uiso  ? O
   O27        1.0     0.880029     0.205995     0.827835    Uiso  ? O
   O28        1.0     0.871417     0.219204     0.799188    Uiso  ? O
   O29        1.0     0.129763     0.195276     0.818014    Uiso  ? O
   O30        1.0     0.120614     0.224755     0.808195    Uiso  ? O
   O31        1.0     0.128416     0.176958     0.802370    Uiso  ? O
   O32        1.0     0.116287     0.185289     0.773453    Uiso  ? O
   O33        1.0     0.173313     0.204295     0.883772    Uiso  ? O
   O34        1.0     0.202399     0.219337     0.876153    Uiso  ? O
   O35        1.0     0.181476     0.198891     0.125034    Uiso  ? O
   O36        1.0     0.194809     0.227414     0.116841    Uiso  ? O
   O37        1.0     0.199592     0.182917     0.130192    Uiso  ? O
   O38        1.0     0.229420     0.192817     0.121927    Uiso  ? O
   O39        1.0     0.217086     0.174334     0.885129    Uiso  ? O
   O40        1.0     0.220812     0.203997     0.872161    Uiso  ? O
   O41        1.0     0.810338     0.870647     0.804925    Uiso  ? O
   O42        1.0     0.798968     0.882426     0.774719    Uiso  ? O
   O43        1.0     0.793115     0.870580     0.820634    Uiso  ? O
   O44        1.0     0.762836     0.881213     0.810581    Uiso  ? O
   O45        1.0     0.785809     0.121061     0.829375    Uiso  ? O
   O46        1.0     0.773747     0.130709     0.799286    Uiso  ? O
   O47        1.0     0.820947     0.119941     0.793343    Uiso  ? O
   O48        1.0     0.791381     0.130825     0.783419    Uiso  ? O
   O49        1.0     0.898236     0.160282     0.167977    Uiso  ? O
   O50        1.0     0.837219     0.161088     0.101650    Uiso  ? O
   O51        1.0     0.831917     0.892322     0.167111    Uiso  ? O
   O52        1.0     0.893266     0.163213     0.837970    Uiso  ? O
   O53        1.0     0.173749     0.159792     0.895123    Uiso  ? O
   O54        1.0     0.828883     0.109111     0.837549    Uiso  ? O
   Zn1        1.0     0.103951     0.184320     0.186094    Uiso  ? Zn
   Zn2        1.0     0.103696     0.215507     0.219611    Uiso  ? Zn
   Zn3        1.0     0.816231     0.184024     0.101177    Uiso  ? Zn
   Zn4        1.0     0.783613     0.222032     0.103747    Uiso  ? Zn
   Zn5        1.0     0.811519     0.102707     0.189331    Uiso  ? Zn
   Zn6        1.0     0.779903     0.104993     0.217408    Uiso  ? Zn
   Zn7        1.0     0.896656     0.183046     0.815263    Uiso  ? Zn
   Zn8        1.0     0.102698     0.213518     0.783315    Uiso  ? Zn
   Zn9        1.0     0.190442     0.184804     0.100596    Uiso  ? Zn
   Zn10       1.0     0.220430     0.215866     0.101743    Uiso  ? Zn
   Zn11       1.0     0.807420     0.103316     0.816437    Uiso  ? Zn
   Zn12       1.0     0.774936     0.103180     0.786133    Uiso  ? Zn
   C97        1.0     0.125096     0.782696     0.818879    Uiso  ? C
   C98        1.0     0.138930     0.771450     0.831263    Uiso  ? C
   C99        1.0     0.137074     0.750178     0.829751    Uiso  ? C
   H49        1.0     0.128239     0.742351     0.818659    Uiso  ? H
   C100       1.0     0.149893     0.738432     0.840773    Uiso  ? C
   H50        1.0     0.150218     0.722188     0.840845    Uiso  ? H
   C101       1.0     0.162580     0.747568     0.854975    Uiso  ? C
   H51        1.0     0.173132     0.738365     0.864088    Uiso  ? H
   C102       1.0     0.163327     0.767691     0.857606    Uiso  ? C
   C103       1.0     0.152368     0.779857     0.844909    Uiso  ? C
   H52        1.0     0.151756     0.795172     0.846824    Uiso  ? H
   C104       1.0     0.176481     0.777461     0.873235    Uiso  ? C
   C105       1.0     0.126038     0.822410     0.786299    Uiso  ? C
   C106       1.0     0.141297     0.835427     0.777124    Uiso  ? C
   C107       1.0     0.141502     0.836984     0.755816    Uiso  ? C
   H53        1.0     0.130452     0.829154     0.746049    Uiso  ? H
   C108       1.0     0.156165     0.847195     0.745423    Uiso  ? C
   H54        1.0     0.156560     0.846400     0.729486    Uiso  ? H
   C109       1.0     0.171502     0.855802     0.756105    Uiso  ? C
   H55        1.0     0.182460     0.862780     0.746033    Uiso  ? H
   C110       1.0     0.170834     0.857054     0.777391    Uiso  ? C
   C111       1.0     0.156732     0.845115     0.787526    Uiso  ? C
   H56        1.0     0.156975     0.843582     0.804287    Uiso  ? H
   C112       1.0     0.184234     0.871259     0.788043    Uiso  ? C
   C113       1.0     0.859567     0.814598     0.785465    Uiso  ? C
   C114       1.0     0.840749     0.822022     0.777874    Uiso  ? C
   C115       1.0     0.829554     0.813252     0.761357    Uiso  ? C
   H57        1.0     0.832937     0.798327     0.755777    Uiso  ? H
   C116       1.0     0.811501     0.821326     0.755950    Uiso  ? C
   H58        1.0     0.802234     0.814303     0.744797    Uiso  ? H
   C117       1.0     0.805098     0.840284     0.763556    Uiso  ? C
   H59        1.0     0.790509     0.846254     0.758692    Uiso  ? H
   C118       1.0     0.816465     0.850820     0.776887    Uiso  ? C
   C119       1.0     0.834689     0.842008     0.782841    Uiso  ? C
   H60        1.0     0.843706     0.849400     0.792904    Uiso  ? H
   C120       1.0     0.809500     0.869949     0.785112    Uiso  ? C
   C121       1.0     0.865577     0.781570     0.821362    Uiso  ? C
   C122       1.0     0.848456     0.771533     0.830608    Uiso  ? C
   C123       1.0     0.842631     0.752320     0.825425    Uiso  ? C
   H61        1.0     0.850012     0.743666     0.813608    Uiso  ? H
   C124       1.0     0.826643     0.742249     0.834940    Uiso  ? C
   H62        1.0     0.824165     0.727347     0.829065    Uiso  ? H
   C125       1.0     0.816220     0.751089     0.850257    Uiso  ? C
   H63        1.0     0.804707     0.743002     0.857712    Uiso  ? H
   C126       1.0     0.822402     0.769868     0.857978    Uiso  ? C
   C127       1.0     0.839053     0.779903     0.848014    Uiso  ? C
   H64        1.0     0.843929     0.795163     0.852604    Uiso  ? H
   C128       1.0     0.810187     0.779451     0.873433    Uiso  ? C
   C129       1.0     0.217153     0.813811     0.129279    Uiso  ? C
   C130       1.0     0.227691     0.822197     0.147043    Uiso  ? C
   C131       1.0     0.243952     0.812326     0.156606    Uiso  ? C
   H65        1.0     0.250413     0.799004     0.149959    Uiso  ? H
   C132       1.0     0.253255     0.820233     0.173707    Uiso  ? C
   H66        1.0     0.266108     0.812698     0.180601    Uiso  ? H
   C133       1.0     0.244741     0.837847     0.182311    Uiso  ? C
   H67        1.0     0.252799     0.845776     0.194501    Uiso  ? H
   C134       1.0     0.227681     0.846618     0.173759    Uiso  ? C
   C135       1.0     0.218246     0.837861     0.157045    Uiso  ? C
   H68        1.0     0.204218     0.844449     0.150887    Uiso  ? H
   C136       1.0     0.219271     0.864353     0.184116    Uiso  ? C
   C137       1.0     0.215864     0.807083     0.867310    Uiso  ? C
   C138       1.0     0.226318     0.816781     0.850661    Uiso  ? C
   C139       1.0     0.243895     0.809604     0.843477    Uiso  ? C
   H69        1.0     0.250105     0.797917     0.852043    Uiso  ? H
   C140       1.0     0.254424     0.819234     0.826815    Uiso  ? C
   H70        1.0     0.269163     0.814586     0.822242    Uiso  ? H
   C141       1.0     0.245896     0.835636     0.818407    Uiso  ? C
   H71        1.0     0.253114     0.841268     0.806986    Uiso  ? H
   C142       1.0     0.227834     0.843648     0.826046    Uiso  ? C
   C143       1.0     0.217816     0.833701     0.841575    Uiso  ? C
   H72        1.0     0.203757     0.840591     0.847118    Uiso  ? H
   C144       1.0     0.219560     0.863406     0.816802    Uiso  ? C
   C145       1.0     0.182346     0.781488     0.133159    Uiso  ? C
   C146       1.0     0.173023     0.774484     0.152341    Uiso  ? C
   C147       1.0     0.184738     0.766204     0.167404    Uiso  ? C
   H73        1.0     0.200048     0.765722     0.164345    Uiso  ? H
   C148       1.0     0.176499     0.760211     0.185316    Uiso  ? C
   H74        1.0     0.187039     0.753568     0.197009    Uiso  ? H
   C149       1.0     0.156365     0.762478     0.189822    Uiso  ? C
   H75        1.0     0.149946     0.758076     0.204453    Uiso  ? H
   C150       1.0     0.145049     0.773499     0.176100    Uiso  ? C
   C151       1.0     0.152126     0.778036     0.156961    Uiso  ? C
   H76        1.0     0.143385     0.785170     0.146521    Uiso  ? H
   C152       1.0     0.125733     0.780804     0.182862    Uiso  ? C
   C153       1.0     0.229598     0.131180     0.820511    Uiso  ? C
   C154       1.0     0.237504     0.150073     0.827947    Uiso  ? C
   C155       1.0     0.250050     0.161722     0.816699    Uiso  ? C
   H77        1.0     0.255469     0.157287     0.802397    Uiso  ? H
   C156       1.0     0.255572     0.180679     0.824004    Uiso  ? C
   H78        1.0     0.267294     0.189201     0.815775    Uiso  ? H
   C157       1.0     0.246029     0.188541     0.840822    Uiso  ? C
   H79        1.0     0.249465     0.205188     0.844341    Uiso  ? H
   C158       1.0     0.234127     0.176515     0.852686    Uiso  ? C
   C159       1.0     0.231808     0.155926     0.847006    Uiso  ? C
   H80        1.0     0.223517     0.146195     0.857299    Uiso  ? H
   C160       1.0     0.224165     0.185051     0.871342    Uiso  ? C
   C161       1.0     0.183555     0.125593     0.782905    Uiso  ? C
   C162       1.0     0.169526     0.139370     0.772685    Uiso  ? C
   C163       1.0     0.169466     0.138077     0.751632    Uiso  ? C
   H81        1.0     0.179029     0.127248     0.743115    Uiso  ? H
   C164       1.0     0.152524     0.146052     0.741412    Uiso  ? C
   H82        1.0     0.150754     0.143334     0.725278    Uiso  ? H
   C165       1.0     0.139614     0.158142     0.751123    Uiso  ? C
   H83        1.0     0.128235     0.165112     0.742254    Uiso  ? H
   C166       1.0     0.141209     0.160596     0.772397    Uiso  ? C
   C167       1.0     0.156290     0.150965     0.783151    Uiso  ? C
   H84        1.0     0.157077     0.152629     0.799308    Uiso  ? H
   C168       1.0     0.128019     0.175271     0.783683    Uiso  ? C
   C169       1.0     0.126079     0.815534     0.217678    Uiso  ? C
   C170       1.0     0.144110     0.823804     0.227458    Uiso  ? C
   C171       1.0     0.147279     0.819003     0.247208    Uiso  ? C
   H85        1.0     0.136904     0.811174     0.254839    Uiso  ? H
   C172       1.0     0.162802     0.829251     0.258307    Uiso  ? C
   H86        1.0     0.164286     0.826576     0.273556    Uiso  ? H
   C173       1.0     0.174409     0.843305     0.248785    Uiso  ? C
   H87        1.0     0.185761     0.851097     0.257739    Uiso  ? H
   C174       1.0     0.171905     0.848509     0.229034    Uiso  ? C
   C175       1.0     0.157130     0.838502     0.218208    Uiso  ? C
   H88        1.0     0.155018     0.841936     0.203031    Uiso  ? H
   C176       1.0     0.182906     0.866228     0.220021    Uiso  ? C
   C177       1.0     0.859933     0.784018     0.186304    Uiso  ? C
   C178       1.0     0.840592     0.775261     0.177196    Uiso  ? C
   C179       1.0     0.829172     0.762166     0.188606    Uiso  ? C
   H89        1.0     0.833083     0.757413     0.203095    Uiso  ? H
   C180       1.0     0.811583     0.753622     0.180953    Uiso  ? C
   H90        1.0     0.802667     0.742472     0.189731    Uiso  ? H
   C181       1.0     0.806070     0.760717     0.161722    Uiso  ? C
   H91        1.0     0.791905     0.754575     0.156172    Uiso  ? H
   C182       1.0     0.817492     0.773193     0.150620    Uiso  ? C
   C183       1.0     0.835618     0.779687     0.157884    Uiso  ? C
   H92        1.0     0.843888     0.791064     0.148750    Uiso  ? H
   C184       1.0     0.808823     0.782196     0.132717    Uiso  ? C
   C185       1.0     0.774845     0.814324     0.872565    Uiso  ? C
   C186       1.0     0.763775     0.825216     0.856042    Uiso  ? C
   C187       1.0     0.745328     0.820099     0.850173    Uiso  ? C
   H93        1.0     0.736757     0.810896     0.860016    Uiso  ? H
   C188       1.0     0.734767     0.829701     0.835296    Uiso  ? C
   H94        1.0     0.719980     0.823911     0.831977    Uiso  ? H
   C189       1.0     0.744393     0.844280     0.824284    Uiso  ? C
   H95        1.0     0.737179     0.849958     0.810948    Uiso  ? H
   C190       1.0     0.763852     0.851664     0.830151    Uiso  ? C
   C191       1.0     0.772487     0.842953     0.847362    Uiso  ? C
   H96        1.0     0.786906     0.846640     0.851614    Uiso  ? H
   C192       1.0     0.774080     0.869437     0.820534    Uiso  ? C
   O55        1.0     0.125333     0.802392     0.819000    Uiso  ? O
   O56        1.0     0.115335     0.773876     0.805507    Uiso  ? O
   O57        1.0     0.125387     0.820867     0.805270    Uiso  ? O
   O58        1.0     0.113471     0.812272     0.775018    Uiso  ? O
   O59        1.0     0.870986     0.827338     0.793920    Uiso  ? O
   O60        1.0     0.864683     0.795989     0.784877    Uiso  ? O
   O61        1.0     0.876078     0.793724     0.830857    Uiso  ? O
   O62        1.0     0.868152     0.779101     0.802124    Uiso  ? O
   O63        1.0     0.204590     0.823764     0.119459    Uiso  ? O
   O64        1.0     0.219549     0.794871     0.126314    Uiso  ? O
   O65        1.0     0.197078     0.810353     0.870843    Uiso  ? O
   O66        1.0     0.225229     0.798531     0.881270    Uiso  ? O
   O67        1.0     0.179061     0.796269     0.871630    Uiso  ? O
   O68        1.0     0.187078     0.767161     0.885302    Uiso  ? O
   O69        1.0     0.172118     0.790178     0.119671    Uiso  ? O
   O70        1.0     0.200954     0.778773     0.129792    Uiso  ? O
   O71        1.0     0.221564     0.119546     0.831827    Uiso  ? O
   O72        1.0     0.230483     0.127232     0.802007    Uiso  ? O
   O73        1.0     0.183273     0.125022     0.802159    Uiso  ? O
   O74        1.0     0.197117     0.115308     0.774276    Uiso  ? O
   O75        1.0     0.183445     0.873779     0.807714    Uiso  ? O
   O76        1.0     0.196801     0.881910     0.778506    Uiso  ? O
   O77        1.0     0.202318     0.870770     0.822546    Uiso  ? O
   O78        1.0     0.230472     0.874122     0.804660    Uiso  ? O
   O79        1.0     0.124423     0.816903     0.198793    Uiso  ? O
   O80        1.0     0.114031     0.804740     0.228165    Uiso  ? O
   O81        1.0     0.123212     0.799453     0.181073    Uiso  ? O
   O82        1.0     0.114702     0.769584     0.193009    Uiso  ? O
   O83        1.0     0.873406     0.791027     0.175491    Uiso  ? O
   O84        1.0     0.864222     0.781123     0.204923    Uiso  ? O
   O85        1.0     0.877171     0.826293     0.210011    Uiso  ? O
   O86        1.0     0.867370     0.797886     0.223770    Uiso  ? O
   O87        1.0     0.819847     0.791628     0.120183    Uiso  ? O
   O88        1.0     0.789945     0.781621     0.130549    Uiso  ? O
   O89        1.0     0.811019     0.797932     0.876065    Uiso  ? O
   O90        1.0     0.801964     0.768884     0.886601    Uiso  ? O
   O91        1.0     0.793150     0.817096     0.875580    Uiso  ? O
   O92        1.0     0.766073     0.799017     0.881440    Uiso  ? O
   O93        1.0     0.783899     0.826370     0.119909    Uiso  ? O
   O94        1.0     0.772556     0.796849     0.130630    Uiso  ? O
   O95        1.0     0.175463     0.114001     0.209720    Uiso  ? O
   O96        1.0     0.204056     0.125881     0.221041    Uiso  ? O
   O97        1.0     0.213203     0.117993     0.175399    Uiso  ? O
   O98        1.0     0.219975     0.126601     0.206117    Uiso  ? O
   O99        1.0     0.200334     0.866981     0.183179    Uiso  ? O
   O100       1.0     0.228912     0.877736     0.193833    Uiso  ? O
   O101       1.0     0.183834     0.868127     0.200840    Uiso  ? O
   O102       1.0     0.193147     0.877195     0.230801    Uiso  ? O
   O103       1.0     0.885223     0.834958     0.837430    Uiso  ? O
   O104       1.0     0.160671     0.830028     0.105103    Uiso  ? O
   O105       1.0     0.181165     0.114152     0.847762    Uiso  ? O
   O106       1.0     0.890322     0.838378     0.163543    Uiso  ? O
   O107       1.0     0.829282     0.831383     0.103361    Uiso  ? O
   O108       1.0     0.168086     0.113629     0.172885    Uiso  ? O
   Zn13       1.0     0.891712     0.814522     0.815969    Uiso  ? Zn
   Zn14       1.0     0.894132     0.786248     0.783448    Uiso  ? Zn
   Zn15       1.0     0.183631     0.809950     0.899811    Uiso  ? Zn
   Zn16       1.0     0.212068     0.776961     0.100576    Uiso  ? Zn
   Zn17       1.0     0.195470     0.104214     0.822532    Uiso  ? Zn
   Zn18       1.0     0.222852     0.102411     0.786597    Uiso  ? Zn
   Zn19       1.0     0.892405     0.814956     0.183430    Uiso  ? Zn
   Zn20       1.0     0.893592     0.782620     0.216866    Uiso  ? Zn
   Zn21       1.0     0.804813     0.812970     0.103377    Uiso  ? Zn
   Zn22       1.0     0.775860     0.781027     0.102494    Uiso  ? Zn
   Zn23       1.0     0.190570     0.896027     0.187978    Uiso  ? Zn
   Zn24       1.0     0.217752     0.893931     0.218863    Uiso  ? Zn
   H97        1.0     0.148632     0.827963     0.895829    Uiso  ? H
   H98        1.0     0.158988     0.838460     0.116229    Uiso  ? H
   H99        1.0     0.833666     0.146384     0.899031    Uiso  ? H
   H100       1.0     0.850003     0.164714     0.106466    Uiso  ? H
   H101       1.0     0.840287     0.897049     0.836671    Uiso  ? H
   H102       1.0     0.825486     0.115568     0.850679    Uiso  ? H
   H103       1.0     0.898206     0.149653     0.836213    Uiso  ? H
   H104       1.0     0.891397     0.166954     0.851129    Uiso  ? H
   H105       1.0     0.161472     0.107190     0.162108    Uiso  ? H
   H106       1.0     0.175833     0.125697     0.170061    Uiso  ? H
   H107       1.0     0.112188     0.149852     0.165387    Uiso  ? H
   H108       1.0     0.888651     0.162899     0.158179    Uiso  ? H
   H109       1.0     0.175438     0.146930     0.100768    Uiso  ? H
   H110       1.0     0.162102     0.164564     0.887794    Uiso  ? H
   H111       1.0     0.102945     0.849234     0.161015    Uiso  ? H
   H112       1.0     0.878493     0.839431     0.154774    Uiso  ? H
   H113       1.0     0.830615     0.887762     0.153267    Uiso  ? H
   H114       1.0     0.842777     0.896469     0.174909    Uiso  ? H
   H115       1.0     0.831552     0.841529     0.114307    Uiso  ? H
   H116       1.0     0.837137     0.830292     0.891559    Uiso  ? H
   H117       1.0     0.189715     0.113831     0.859300    Uiso  ? H
   H118       1.0     0.168206     0.120425     0.849098    Uiso  ? H
   H119       1.0     0.895031     0.834431     0.847561    Uiso  ? H
   H120       1.0     0.871888     0.836902     0.840836    Uiso  ? H
   C193       1.0     0.872894     0.376754     0.414625    Uiso  ? C
   C194       1.0     0.855333     0.368019     0.423261    Uiso  ? C
   C195       1.0     0.841572     0.356261     0.411513    Uiso  ? C
   H121       1.0     0.845977     0.353154     0.397218    Uiso  ? H
   C196       1.0     0.824048     0.347951     0.421017    Uiso  ? C
   H122       1.0     0.814677     0.337276     0.412484    Uiso  ? H
   C197       1.0     0.819638     0.351983     0.440117    Uiso  ? C
   H123       1.0     0.806376     0.345604     0.445199    Uiso  ? H
   C198       1.0     0.830878     0.366869     0.450127    Uiso  ? C
   C199       1.0     0.849572     0.372322     0.442880    Uiso  ? C
   H124       1.0     0.860260     0.378895     0.451938    Uiso  ? H
   C200       1.0     0.823570     0.374193     0.469399    Uiso  ? C
   C201       1.0     0.869281     0.414804     0.383717    Uiso  ? C
   C202       1.0     0.850747     0.424054     0.375078    Uiso  ? C
   C203       1.0     0.841066     0.413706     0.360280    Uiso  ? C
   H125       1.0     0.848324     0.401139     0.353145    Uiso  ? H
   C204       1.0     0.823673     0.421563     0.351535    Uiso  ? C
   H126       1.0     0.817165     0.414489     0.338765    Uiso  ? H
   C205       1.0     0.814303     0.438448     0.359655    Uiso  ? C
   H127       1.0     0.800826     0.445085     0.353922    Uiso  ? H
   C206       1.0     0.823756     0.449142     0.374680    Uiso  ? C
   C207       1.0     0.841881     0.442188     0.382742    Uiso  ? C
   H128       1.0     0.847059     0.449048     0.395958    Uiso  ? H
   C208       1.0     0.813884     0.467493     0.383647    Uiso  ? C
   C209       1.0     0.131926     0.421639     0.383461    Uiso  ? C
   C210       1.0     0.147596     0.433477     0.372280    Uiso  ? C
   C211       1.0     0.149181     0.432715     0.351362    Uiso  ? C
   H129       1.0     0.138292     0.422990     0.341553    Uiso  ? H
   C212       1.0     0.162679     0.444016     0.340912    Uiso  ? C
   H130       1.0     0.166750     0.440586     0.325636    Uiso  ? H
   C213       1.0     0.174583     0.458079     0.351538    Uiso  ? C
   H131       1.0     0.186251     0.465923     0.343080    Uiso  ? H
   C214       1.0     0.172063     0.461281     0.371902    Uiso  ? C
   C215       1.0     0.157874     0.449127     0.381882    Uiso  ? C
   H132       1.0     0.153059     0.453783     0.396784    Uiso  ? H
   C216       1.0     0.183910     0.476731     0.382900    Uiso  ? C
   C217       1.0     0.135365     0.384919     0.417458    Uiso  ? C
   C218       1.0     0.153464     0.375321     0.426894    Uiso  ? C
   C219       1.0     0.164824     0.362560     0.415673    Uiso  ? C
   H133       1.0     0.161217     0.359934     0.400570    Uiso  ? H
   C220       1.0     0.179888     0.351194     0.423348    Uiso  ? C
   H134       1.0     0.188334     0.340709     0.413448    Uiso  ? H
   C221       1.0     0.186793     0.355407     0.442631    Uiso  ? C
   H135       1.0     0.199286     0.347173     0.447812    Uiso  ? H
   C222       1.0     0.177848     0.371172     0.454421    Uiso  ? C
   C223       1.0     0.160937     0.380714     0.446259    Uiso  ? C
   H136       1.0     0.150859     0.390761     0.455915    Uiso  ? H
   C224       1.0     0.186061     0.379806     0.472243    Uiso  ? C
   C225       1.0     0.788511     0.417149     0.524567    Uiso  ? C
   C226       1.0     0.777050     0.429956     0.539115    Uiso  ? C
   C227       1.0     0.756485     0.427899     0.540354    Uiso  ? C
   H137       1.0     0.748515     0.418367     0.530257    Uiso  ? H
   C228       1.0     0.745215     0.438636     0.554570    Uiso  ? C
   H138       1.0     0.729974     0.434886     0.556965    Uiso  ? H
   C229       1.0     0.754545     0.452447     0.566834    Uiso  ? C
   H139       1.0     0.745961     0.460420     0.577698    Uiso  ? H
   C230       1.0     0.775601     0.454560     0.565585    Uiso  ? C
   C231       1.0     0.786292     0.443126     0.551722    Uiso  ? C
   H140       1.0     0.801897     0.446220     0.548623    Uiso  ? H
   C232       1.0     0.786256     0.468339     0.579307    Uiso  ? C
   C233       1.0     0.786991     0.423600     0.475399    Uiso  ? C
   C234       1.0     0.775388     0.437908     0.463092    Uiso  ? C
   C235       1.0     0.754877     0.439229     0.465154    Uiso  ? C
   H141       1.0     0.746791     0.430590     0.476616    Uiso  ? H
   C236       1.0     0.744022     0.451725     0.451267    Uiso  ? C
   H142       1.0     0.727844     0.453812     0.453698    Uiso  ? H
   C237       1.0     0.753312     0.464629     0.438562    Uiso  ? C
   H143       1.0     0.744030     0.476470     0.432139    Uiso  ? H
   C238       1.0     0.774083     0.463661     0.435562    Uiso  ? C
   C239       1.0     0.785427     0.450211     0.448027    Uiso  ? C
   H144       1.0     0.801424     0.449752     0.444496    Uiso  ? H
   C240       1.0     0.784267     0.475577     0.420126    Uiso  ? C
   C241       1.0     0.820661     0.379378     0.530767    Uiso  ? C
   C242       1.0     0.831368     0.368877     0.546230    Uiso  ? C
   C243       1.0     0.830621     0.347917     0.547836    Uiso  ? C
   H145       1.0     0.821965     0.338732     0.538548    Uiso  ? H
   C244       1.0     0.843348     0.338988     0.561690    Uiso  ? C
   H146       1.0     0.843648     0.321966     0.565521    Uiso  ? H
   C245       1.0     0.856896     0.350333     0.572703    Uiso  ? C
   H147       1.0     0.866098     0.342145     0.583485    Uiso  ? H
   C246       1.0     0.859762     0.370659     0.569092    Uiso  ? C
   C247       1.0     0.846655     0.379833     0.556097    Uiso  ? C
   H148       1.0     0.848984     0.395128     0.554497    Uiso  ? H
   C248       1.0     0.874983     0.381612     0.580445    Uiso  ? C
   C249       1.0     0.779537     0.524825     0.422148    Uiso  ? C
   C250       1.0     0.768499     0.538391     0.434853    Uiso  ? C
   C251       1.0     0.747707     0.539952     0.433675    Uiso  ? C
   H149       1.0     0.739021     0.533241     0.421705    Uiso  ? H
   C252       1.0     0.737405     0.553538     0.445664    Uiso  ? C
   H150       1.0     0.722681     0.557659     0.442410    Uiso  ? H
   C253       1.0     0.747754     0.567606     0.458068    Uiso  ? C
   H151       1.0     0.738584     0.578122     0.466864    Uiso  ? H
   C254       1.0     0.769368     0.566006     0.459431    Uiso  ? C
   C255       1.0     0.778760     0.551086     0.447833    Uiso  ? C
   H152       1.0     0.795283     0.551784     0.447273    Uiso  ? H
   C256       1.0     0.779424     0.577771     0.475036    Uiso  ? C
   C257       1.0     0.817716     0.529100     0.379386    Uiso  ? C
   C258       1.0     0.826152     0.547861     0.372512    Uiso  ? C
   C259       1.0     0.814859     0.558060     0.357623    Uiso  ? C
   H153       1.0     0.799505     0.553796     0.354329    Uiso  ? H
   C260       1.0     0.821197     0.575888     0.351681    Uiso  ? C
   H154       1.0     0.812630     0.584599     0.342885    Uiso  ? H
   C261       1.0     0.838022     0.584887     0.359927    Uiso  ? C
   H155       1.0     0.840552     0.600348     0.357433    Uiso  ? H
   C262       1.0     0.849333     0.574966     0.373607    Uiso  ? C
   C263       1.0     0.844241     0.555882     0.379888    Uiso  ? C
   H156       1.0     0.851629     0.549689     0.393156    Uiso  ? H
   C264       1.0     0.867863     0.582828     0.383341    Uiso  ? C
   C265       1.0     0.873865     0.415806     0.616745    Uiso  ? C
   C266       1.0     0.856243     0.426472     0.627422    Uiso  ? C
   C267       1.0     0.850337     0.420871     0.646444    Uiso  ? C
   H157       1.0     0.858020     0.409437     0.654795    Uiso  ? H
   C268       1.0     0.833657     0.428641     0.656424    Uiso  ? C
   H158       1.0     0.832560     0.426618     0.672657    Uiso  ? H
   C269       1.0     0.821761     0.442573     0.647260    Uiso  ? C
   H159       1.0     0.808929     0.449515     0.655578    Uiso  ? H
   C270       1.0     0.826932     0.449280     0.627188    Uiso  ? C
   C271       1.0     0.843995     0.440418     0.617753    Uiso  ? C
   H160       1.0     0.846873     0.445339     0.602206    Uiso  ? H
   C272       1.0     0.817902     0.466399     0.618388    Uiso  ? C
   C273       1.0     0.138952     0.379774     0.587810    Uiso  ? C
   C274       1.0     0.157843     0.372813     0.578718    Uiso  ? C
   C275       1.0     0.168734     0.356770     0.587734    Uiso  ? C
   H161       1.0     0.163120     0.347143     0.600226    Uiso  ? H
   C276       1.0     0.186256     0.351329     0.578918    Uiso  ? C
   H162       1.0     0.196086     0.339544     0.585475    Uiso  ? H
   C277       1.0     0.194347     0.360028     0.561618    Uiso  ? C
   H163       1.0     0.208725     0.356281     0.556256    Uiso  ? H
   C278       1.0     0.184027     0.376096     0.552986    Uiso  ? C
   C279       1.0     0.166765     0.382948     0.561074    Uiso  ? C
   H164       1.0     0.159180     0.395494     0.553373    Uiso  ? H
   C280       1.0     0.191439     0.384133     0.534968    Uiso  ? C
   C281       1.0     0.217643     0.415901     0.469492    Uiso  ? C
   C282       1.0     0.224711     0.423187     0.449825    Uiso  ? C
   C283       1.0     0.240289     0.414227     0.439040    Uiso  ? C
   H165       1.0     0.245132     0.399737     0.441404    Uiso  ? H
   C284       1.0     0.248394     0.423269     0.421596    Uiso  ? C
   H166       1.0     0.261724     0.417686     0.414553    Uiso  ? H
   C285       1.0     0.239669     0.440947     0.413697    Uiso  ? C
   H167       1.0     0.245581     0.449842     0.401506    Uiso  ? H
   C286       1.0     0.224859     0.451431     0.425356    Uiso  ? C
   C287       1.0     0.217550     0.441711     0.443476    Uiso  ? C
   H168       1.0     0.204548     0.448380     0.449760    Uiso  ? H
   C288       1.0     0.216747     0.469896     0.417981    Uiso  ? C
   O109       1.0     0.885920     0.384096     0.426285    Uiso  ? O
   O110       1.0     0.874792     0.378523     0.395904    Uiso  ? O
   O111       1.0     0.879398     0.422982     0.398062    Uiso  ? O
   O112       1.0     0.872125     0.396764     0.381206    Uiso  ? O
   O113       1.0     0.130794     0.420462     0.402261    Uiso  ? O
   O114       1.0     0.119269     0.412055     0.372932    Uiso  ? O
   O115       1.0     0.134304     0.403590     0.419101    Uiso  ? O
   O116       1.0     0.123914     0.374087     0.407184    Uiso  ? O
   O117       1.0     0.807169     0.414010     0.525923    Uiso  ? O
   O118       1.0     0.779329     0.409289     0.510108    Uiso  ? O
   O119       1.0     0.805173     0.426315     0.476664    Uiso  ? O
   O120       1.0     0.778189     0.411543     0.487616    Uiso  ? O
   O121       1.0     0.834424     0.386052     0.480271    Uiso  ? O
   O122       1.0     0.805177     0.373012     0.472891    Uiso  ? O
   O123       1.0     0.825153     0.397264     0.526066    Uiso  ? O
   O124       1.0     0.805766     0.371558     0.522085    Uiso  ? O
   O125       1.0     0.798455     0.521686     0.424955    Uiso  ? O
   O126       1.0     0.770880     0.514960     0.407743    Uiso  ? O
   O127       1.0     0.829248     0.516109     0.387900    Uiso  ? O
   O128       1.0     0.798112     0.528071     0.379524    Uiso  ? O
   O129       1.0     0.816913     0.472181     0.401687    Uiso  ? O
   O130       1.0     0.803418     0.478733     0.373159    Uiso  ? O
   O131       1.0     0.803385     0.476099     0.418691    Uiso  ? O
   O132       1.0     0.773103     0.487397     0.409577    Uiso  ? O
   O133       1.0     0.875241     0.417507     0.597806    Uiso  ? O
   O134       1.0     0.885284     0.404059     0.626231    Uiso  ? O
   O135       1.0     0.875442     0.400425     0.580385    Uiso  ? O
   O136       1.0     0.887823     0.371087     0.589961    Uiso  ? O
   O137       1.0     0.126111     0.389385     0.578250    Uiso  ? O
   O138       1.0     0.135209     0.377642     0.606489    Uiso  ? O
   O139       1.0     0.124895     0.428942     0.605619    Uiso  ? O
   O140       1.0     0.128305     0.400890     0.623438    Uiso  ? O
   O141       1.0     0.187120     0.401448     0.530427    Uiso  ? O
   O142       1.0     0.200140     0.372887     0.522779    Uiso  ? O
   O143       1.0     0.175402     0.391764     0.484515    Uiso  ? O
   O144       1.0     0.204907     0.377684     0.475465    Uiso  ? O
   O145       1.0     0.208464     0.427321     0.482730    Uiso  ? O
   O146       1.0     0.221651     0.398167     0.473819    Uiso  ? O
   O147       1.0     0.201812     0.421136     0.527840    Uiso  ? O
   O148       1.0     0.229604     0.408635     0.518566    Uiso  ? O
   O149       1.0     0.825850     0.517542     0.611478    Uiso  ? O
   O150       1.0     0.794270     0.525468     0.618923    Uiso  ? O
   O151       1.0     0.797036     0.515823     0.572181    Uiso  ? O
   O152       1.0     0.769663     0.505599     0.586702    Uiso  ? O
   O153       1.0     0.805602     0.469409     0.581461    Uiso  ? O
   O154       1.0     0.774659     0.479664     0.590592    Uiso  ? O
   O155       1.0     0.823149     0.471728     0.600460    Uiso  ? O
   O156       1.0     0.802970     0.475079     0.626392    Uiso  ? O
   O157       1.0     0.893850     0.427372     0.443791    Uiso  ? O
   O158       1.0     0.846950     0.429724     0.495907    Uiso  ? O
   O159       1.0     0.842479     0.502306     0.428269    Uiso  ? O
   O160       1.0     0.113197     0.432051     0.558857    Uiso  ? O
   O161       1.0     0.161439     0.427764     0.498070    Uiso  ? O
   O162       1.0     0.841004     0.506131     0.566678    Uiso  ? O
   Zn25       1.0     0.104828     0.411338     0.418305    Uiso  ? Zn
   Zn26       1.0     0.105763     0.385821     0.382208    Uiso  ? Zn
   Zn27       1.0     0.823981     0.410989     0.497815    Uiso  ? Zn
   Zn28       1.0     0.789036     0.381893     0.496060    Uiso  ? Zn
   Zn29       1.0     0.817842     0.502230     0.412378    Uiso  ? Zn
   Zn30       1.0     0.783534     0.500445     0.382410    Uiso  ? Zn
   Zn31       1.0     0.107412     0.413521     0.583497    Uiso  ? Zn
   Zn32       1.0     0.106511     0.378849     0.616163    Uiso  ? Zn
   Zn33       1.0     0.188548     0.413603     0.500657    Uiso  ? Zn
   Zn34       1.0     0.219926     0.382734     0.501756    Uiso  ? Zn
   Zn35       1.0     0.818496     0.499674     0.586599    Uiso  ? Zn
   Zn36       1.0     0.783050     0.497219     0.614742    Uiso  ? Zn
   C289       1.0     0.124112     0.619167     0.582333    Uiso  ? C
   C290       1.0     0.140048     0.629999     0.570975    Uiso  ? C
   C291       1.0     0.141089     0.650839     0.572818    Uiso  ? C
   H169       1.0     0.132256     0.660294     0.581926    Uiso  ? H
   C292       1.0     0.156585     0.660547     0.561823    Uiso  ? C
   H170       1.0     0.155422     0.676675     0.560472    Uiso  ? H
   C293       1.0     0.168212     0.650412     0.547583    Uiso  ? C
   H171       1.0     0.178142     0.658451     0.538527    Uiso  ? H
   C294       1.0     0.165159     0.630287     0.543276    Uiso  ? C
   C295       1.0     0.150850     0.620439     0.555621    Uiso  ? C
   H172       1.0     0.147707     0.604273     0.552840    Uiso  ? H
   C296       1.0     0.177693     0.619831     0.526770    Uiso  ? C
   C297       1.0     0.129021     0.584301     0.618822    Uiso  ? C
   C298       1.0     0.146784     0.574409     0.628949    Uiso  ? C
   C299       1.0     0.156266     0.583648     0.645954    Uiso  ? C
   H173       1.0     0.148870     0.596875     0.651291    Uiso  ? H
   C300       1.0     0.173623     0.575010     0.653902    Uiso  ? C
   H174       1.0     0.180214     0.582151     0.666725    Uiso  ? H
   C301       1.0     0.181207     0.556818     0.646157    Uiso  ? C
   H175       1.0     0.194796     0.550277     0.653369    Uiso  ? H
   C302       1.0     0.171574     0.547767     0.630318    Uiso  ? C
   C303       1.0     0.155762     0.557714     0.621829    Uiso  ? C
   H176       1.0     0.147613     0.551310     0.609274    Uiso  ? H
   C304       1.0     0.181501     0.530733     0.620607    Uiso  ? C
   C305       1.0     0.862789     0.583806     0.621316    Uiso  ? C
   C306       1.0     0.843736     0.576048     0.628256    Uiso  ? C
   C307       1.0     0.828911     0.588886     0.636699    Uiso  ? C
   H177       1.0     0.831992     0.604962     0.641123    Uiso  ? H
   C308       1.0     0.811034     0.580336     0.642129    Uiso  ? C
   H178       1.0     0.799381     0.589919     0.648706    Uiso  ? H
   C309       1.0     0.806452     0.561394     0.637052    Uiso  ? C
   H179       1.0     0.790434     0.556019     0.639484    Uiso  ? H
   C310       1.0     0.819756     0.548009     0.627433    Uiso  ? C
   C311       1.0     0.839677     0.555533     0.623311    Uiso  ? C
   H180       1.0     0.852427     0.545911     0.616569    Uiso  ? H
   C312       1.0     0.812612     0.529348     0.619288    Uiso  ? C
   C313       1.0     0.864894     0.616392     0.585762    Uiso  ? C
   C314       1.0     0.846982     0.625509     0.576866    Uiso  ? C
   C315       1.0     0.836501     0.639965     0.586864    Uiso  ? C
   H181       1.0     0.843120     0.646122     0.600897    Uiso  ? H
   C316       1.0     0.818965     0.646559     0.578897    Uiso  ? C
   H182       1.0     0.811628     0.657894     0.587695    Uiso  ? H
   C317       1.0     0.812367     0.640616     0.559845    Uiso  ? C
   H183       1.0     0.797386     0.646377     0.555177    Uiso  ? H
   C318       1.0     0.822235     0.625824     0.549139    Uiso  ? C
   C319       1.0     0.840504     0.618262     0.558174    Uiso  ? C
   H184       1.0     0.846734     0.604742     0.551313    Uiso  ? H
   C320       1.0     0.813979     0.617703     0.529984    Uiso  ? C
   C321       1.0     0.223470     0.588160     0.470634    Uiso  ? C
   C322       1.0     0.233372     0.578687     0.453608    Uiso  ? C
   C323       1.0     0.247578     0.589430     0.443029    Uiso  ? C
   H185       1.0     0.253376     0.603660     0.448525    Uiso  ? H
   C324       1.0     0.255344     0.580958     0.425711    Uiso  ? C
   H186       1.0     0.268187     0.587619     0.418605    Uiso  ? H
   C325       1.0     0.246770     0.563467     0.416739    Uiso  ? C
   H187       1.0     0.249739     0.561488     0.401402    Uiso  ? H
   C326       1.0     0.234538     0.550890     0.428337    Uiso  ? C
   C327       1.0     0.227415     0.558951     0.446648    Uiso  ? C
   H188       1.0     0.217989     0.551031     0.455089    Uiso  ? H
   C328       1.0     0.225410     0.532519     0.420011    Uiso  ? C
   C329       1.0     0.212677     0.586700     0.532916    Uiso  ? C
   C330       1.0     0.221089     0.576728     0.550107    Uiso  ? C
   C331       1.0     0.238748     0.585759     0.557288    Uiso  ? C
   H189       1.0     0.243690     0.599415     0.550526    Uiso  ? H
   C332       1.0     0.248901     0.576091     0.573240    Uiso  ? C
   H190       1.0     0.264194     0.580897     0.578356    Uiso  ? H
   C333       1.0     0.241335     0.558436     0.580523    Uiso  ? C
   H191       1.0     0.249550     0.550186     0.591023    Uiso  ? H
   C334       1.0     0.223707     0.549992     0.573613    Uiso  ? C
   C335       1.0     0.212776     0.560158     0.559604    Uiso  ? C
   H192       1.0     0.198934     0.553389     0.553733    Uiso  ? H
   C336       1.0     0.215229     0.531757     0.583890    Uiso  ? C
   C337       1.0     0.186340     0.620328     0.467476    Uiso  ? C
   C338       1.0     0.177251     0.628985     0.449679    Uiso  ? C
   C339       1.0     0.185635     0.645658     0.440138    Uiso  ? C
   H193       1.0     0.197626     0.653218     0.447229    Uiso  ? H
   C340       1.0     0.178180     0.653156     0.421912    Uiso  ? C
   H194       1.0     0.186090     0.664855     0.414139    Uiso  ? H
   C341       1.0     0.163129     0.643149     0.412572    Uiso  ? C
   H195       1.0     0.155403     0.649327     0.399957    Uiso  ? H
   C342       1.0     0.153247     0.627895     0.422550    Uiso  ? C
   C343       1.0     0.159918     0.620107     0.440974    Uiso  ? C
   H196       1.0     0.153583     0.607929     0.447558    Uiso  ? H
   C344       1.0     0.134049     0.618383     0.414012    Uiso  ? C
   C345       1.0     0.219495     0.471437     0.583512    Uiso  ? C
   C346       1.0     0.230733     0.456836     0.572471    Uiso  ? C
   C347       1.0     0.251384     0.453811     0.576131    Uiso  ? C
   H197       1.0     0.258804     0.462793     0.587825    Uiso  ? H
   C348       1.0     0.261843     0.439933     0.564590    Uiso  ? C
   H198       1.0     0.276919     0.437783     0.568015    Uiso  ? H
   C349       1.0     0.252211     0.427427     0.550041    Uiso  ? C
   H199       1.0     0.259836     0.417403     0.539380    Uiso  ? H
   C350       1.0     0.231300     0.430211     0.547141    Uiso  ? C
   C351       1.0     0.221207     0.443606     0.558211    Uiso  ? C
   H200       1.0     0.206655     0.447295     0.553575    Uiso  ? H
   C352       1.0     0.221333     0.419900     0.530335    Uiso  ? C
   C353       1.0     0.185537     0.471163     0.621455    Uiso  ? C
   C354       1.0     0.177599     0.452151     0.629810    Uiso  ? C
   C355       1.0     0.188840     0.440114     0.642726    Uiso  ? C
   H201       1.0     0.202488     0.445367     0.647546    Uiso  ? H
   C356       1.0     0.181847     0.421637     0.648842    Uiso  ? C
   H202       1.0     0.191484     0.411781     0.658133    Uiso  ? H
   C357       1.0     0.163150     0.415725     0.642548    Uiso  ? C
   H203       1.0     0.157893     0.401393     0.646586    Uiso  ? H
   C358       1.0     0.151667     0.427162     0.628991    Uiso  ? C
   C359       1.0     0.160579     0.445397     0.621871    Uiso  ? C
   H204       1.0     0.151764     0.453501     0.611107    Uiso  ? H
   C360       1.0     0.134229     0.418481     0.618570    Uiso  ? C
   C361       1.0     0.117649     0.568118     0.377979    Uiso  ? C
   C362       1.0     0.131995     0.553008     0.368117    Uiso  ? C
   C363       1.0     0.129323     0.546586     0.348376    Uiso  ? C
   H205       1.0     0.117364     0.555123     0.340228    Uiso  ? H
   C364       1.0     0.142079     0.532738     0.341074    Uiso  ? C
   H206       1.0     0.141021     0.528873     0.324801    Uiso  ? H
   C365       1.0     0.158996     0.526058     0.350513    Uiso  ? C
   H207       1.0     0.167624     0.515048     0.342867    Uiso  ? H
   C366       1.0     0.161996     0.531417     0.370402    Uiso  ? C
   C367       1.0     0.148711     0.545647     0.378355    Uiso  ? C
   H208       1.0     0.152597     0.550770     0.392594    Uiso  ? H
   C368       1.0     0.177658     0.521313     0.382117    Uiso  ? C
   C369       1.0     0.868445     0.614615     0.416314    Uiso  ? C
   C370       1.0     0.848506     0.623050     0.423613    Uiso  ? C
   C371       1.0     0.842119     0.641357     0.417807    Uiso  ? C
   H209       1.0     0.849906     0.650977     0.406463    Uiso  ? H
   C372       1.0     0.825496     0.650089     0.426733    Uiso  ? C
   H210       1.0     0.820875     0.664135     0.420513    Uiso  ? H
   C373       1.0     0.814174     0.640344     0.441280    Uiso  ? C
   H211       1.0     0.801849     0.649276     0.447617    Uiso  ? H
   C374       1.0     0.822252     0.622613     0.448537    Uiso  ? C
   C375       1.0     0.839550     0.613893     0.440183    Uiso  ? C
   H212       1.0     0.844699     0.601459     0.446866    Uiso  ? H
   C376       1.0     0.812343     0.612636     0.467131    Uiso  ? C
   C377       1.0     0.778722     0.568922     0.520780    Uiso  ? C
   C378       1.0     0.767346     0.553423     0.533229    Uiso  ? C
   C379       1.0     0.746363     0.555619     0.534799    Uiso  ? C
   H213       1.0     0.738946     0.566976     0.527239    Uiso  ? H
   C380       1.0     0.735735     0.543356     0.547348    Uiso  ? C
   H214       1.0     0.720315     0.547809     0.549481    Uiso  ? H
   C381       1.0     0.745534     0.528307     0.558881    Uiso  ? C
   H215       1.0     0.736950     0.520535     0.570186    Uiso  ? H
   C382       1.0     0.766108     0.526752     0.558016    Uiso  ? C
   C383       1.0     0.776777     0.538961     0.544748    Uiso  ? C
   H216       1.0     0.792722     0.536605     0.543035    Uiso  ? H
   C384       1.0     0.778064     0.514845     0.572465    Uiso  ? C
   O163       1.0     0.123992     0.600034     0.582315    Uiso  ? O
   O164       1.0     0.113517     0.628262     0.596039    Uiso  ? O
   O165       1.0     0.127347     0.583858     0.599734    Uiso  ? O
   O166       1.0     0.115111     0.591224     0.629295    Uiso  ? O
   O167       1.0     0.876467     0.573116     0.613640    Uiso  ? O
   O168       1.0     0.865874     0.603187     0.622296    Uiso  ? O
   O169       1.0     0.876407     0.604431     0.575957    Uiso  ? O
   O170       1.0     0.867839     0.618534     0.603733    Uiso  ? O
   O171       1.0     0.213113     0.577415     0.483123    Uiso  ? O
   O172       1.0     0.224314     0.607288     0.473337    Uiso  ? O
   O173       1.0     0.193638     0.584302     0.529229    Uiso  ? O
   O174       1.0     0.225106     0.596240     0.522097    Uiso  ? O
   O175       1.0     0.178537     0.600432     0.526000    Uiso  ? O
   O176       1.0     0.188846     0.630005     0.515564    Uiso  ? O
   O177       1.0     0.175730     0.609659     0.479297    Uiso  ? O
   O178       1.0     0.205016     0.622291     0.471071    Uiso  ? O
   O179       1.0     0.206797     0.483029     0.574868    Uiso  ? O
   O180       1.0     0.224027     0.473898     0.601929    Uiso  ? O
   O181       1.0     0.173734     0.482376     0.611383    Uiso  ? O
   O182       1.0     0.204634     0.473582     0.621917    Uiso  ? O
   O183       1.0     0.176102     0.525858     0.603111    Uiso  ? O
   O184       1.0     0.195957     0.521106     0.628487    Uiso  ? O
   O185       1.0     0.195715     0.529895     0.586237    Uiso  ? O
   O186       1.0     0.226983     0.519308     0.592035    Uiso  ? O
   O187       1.0     0.106814     0.562829     0.392886    Uiso  ? O
   O188       1.0     0.122215     0.586029     0.374972    Uiso  ? O
   O189       1.0     0.130075     0.600096     0.417858    Uiso  ? O
   O190       1.0     0.123340     0.628603     0.402279    Uiso  ? O
   O191       1.0     0.877696     0.602694     0.426968    Uiso  ? O
   O192       1.0     0.874933     0.619458     0.398449    Uiso  ? O
   O193       1.0     0.877375     0.572226     0.396353    Uiso  ? O
   O194       1.0     0.873492     0.599901     0.379169    Uiso  ? O
   O195       1.0     0.816308     0.594824     0.472007    Uiso  ? O
   O196       1.0     0.801452     0.623615     0.477605    Uiso  ? O
   O197       1.0     0.826249     0.608621     0.518460    Uiso  ? O
   O198       1.0     0.795588     0.617931     0.527236    Uiso  ? O
   O199       1.0     0.797820     0.566425     0.517838    Uiso  ? O
   O200       1.0     0.769387     0.584205     0.513694    Uiso  ? O
   O201       1.0     0.798154     0.576300     0.476579    Uiso  ? O
   O202       1.0     0.769387     0.590356     0.485333    Uiso  ? O
   O203       1.0     0.183143     0.479212     0.401107    Uiso  ? O
   O204       1.0     0.195861     0.487699     0.373168    Uiso  ? O
   O205       1.0     0.198242     0.475936     0.421918    Uiso  ? O
   O206       1.0     0.227882     0.481395     0.407459    Uiso  ? O
   O207       1.0     0.215101     0.520194     0.430247    Uiso  ? O
   O208       1.0     0.227887     0.529704     0.401557    Uiso  ? O
   O209       1.0     0.176754     0.521474     0.400652    Uiso  ? O
   O210       1.0     0.192224     0.512647     0.373947    Uiso  ? O
   O211       1.0     0.887687     0.559182     0.572204    Uiso  ? O
   O212       1.0     0.168557     0.566994     0.487446    Uiso  ? O
   O213       1.0     0.163414     0.496224     0.565837    Uiso  ? O
   O214       1.0     0.116584     0.568932     0.441847    Uiso  ? O
   O215       1.0     0.844389     0.568034     0.502047    Uiso  ? O
   O216       1.0     0.170634     0.506511     0.445910    Uiso  ? O
   Zn37       1.0     0.894296     0.584618     0.589836    Uiso  ? Zn
   Zn38       1.0     0.894251     0.615124     0.619508    Uiso  ? Zn
   Zn39       1.0     0.187213     0.588950     0.497536    Uiso  ? Zn
   Zn40       1.0     0.216738     0.620205     0.501907    Uiso  ? Zn
   Zn41       1.0     0.183977     0.500296     0.588009    Uiso  ? Zn
   Zn42       1.0     0.218570     0.502144     0.616949    Uiso  ? Zn
   Zn43       1.0     0.103318     0.582990     0.417303    Uiso  ? Zn
   Zn44       1.0     0.105033     0.613020     0.382365    Uiso  ? Zn
   Zn45       1.0     0.818042     0.584304     0.501841    Uiso  ? Zn
   Zn46       1.0     0.780182     0.613128     0.501261    Uiso  ? Zn
   Zn47       1.0     0.191395     0.504409     0.420968    Uiso  ? Zn
   Zn48       1.0     0.219698     0.503384     0.386705    Uiso  ? Zn
   H217       1.0     0.160550     0.560377     0.496415    Uiso  ? H
   H218       1.0     0.164737     0.565052     0.473607    Uiso  ? H
   H219       1.0     0.856113     0.430356     0.484598    Uiso  ? H
   H220       1.0     0.849372     0.437026     0.508044    Uiso  ? H
   H221       1.0     0.852290     0.512986     0.570303    Uiso  ? H
   H222       1.0     0.839212     0.502630     0.553033    Uiso  ? H
   H223       1.0     0.108606     0.425802     0.547413    Uiso  ? H
   H224       1.0     0.118283     0.445881     0.558573    Uiso  ? H
   H225       1.0     0.166538     0.518309     0.453829    Uiso  ? H
   H226       1.0     0.166763     0.493239     0.450404    Uiso  ? H
   H227       1.0     0.890263     0.441526     0.444443    Uiso  ? H
   H228       1.0     0.888427     0.420040     0.455483    Uiso  ? H
   H229       1.0     0.159699     0.442380     0.499207    Uiso  ? H
   H230       1.0     0.151060     0.419739     0.492200    Uiso  ? H
   H231       1.0     0.126226     0.558725     0.439817    Uiso  ? H
   H232       1.0     0.114414     0.574938     0.455562    Uiso  ? H
   H233       1.0     0.852542     0.511978     0.423519    Uiso  ? H
   H234       1.0     0.840279     0.496804     0.441595    Uiso  ? H
   H235       1.0     0.857660     0.574964     0.501384    Uiso  ? H
   H236       1.0     0.843609     0.553875     0.503568    Uiso  ? H
   H237       1.0     0.168683     0.493770     0.552971    Uiso  ? H
   H238       1.0     0.150327     0.502285     0.566864    Uiso  ? H
   H239       1.0     0.876613     0.556785     0.562811    Uiso  ? H
   H240       1.0     0.897577     0.548926     0.570435    Uiso  ? H
   C385       1.0     0.613338     0.872492     0.421324    Uiso  ? C
   C386       1.0     0.623931     0.855217     0.432809    Uiso  ? C
   C387       1.0     0.643378     0.848084     0.427249    Uiso  ? C
   H241       1.0     0.648931     0.852004     0.413639    Uiso  ? H
   C388       1.0     0.652113     0.831404     0.437467    Uiso  ? C
   H242       1.0     0.663809     0.824943     0.431808    Uiso  ? H
   C389       1.0     0.641347     0.822417     0.453252    Uiso  ? C
   H243       1.0     0.649531     0.809519     0.460150    Uiso  ? H
   C390       1.0     0.623562     0.830414     0.460380    Uiso  ? C
   C391       1.0     0.614976     0.847185     0.449902    Uiso  ? C
   H244       1.0     0.601648     0.853383     0.457239    Uiso  ? H
   C392       1.0     0.613016     0.818731     0.476662    Uiso  ? C
   C393       1.0     0.583029     0.868042     0.382272    Uiso  ? C
   C394       1.0     0.572897     0.850972     0.373183    Uiso  ? C
   C395       1.0     0.581828     0.844067     0.355482    Uiso  ? C
   H245       1.0     0.594694     0.852559     0.349614    Uiso  ? H
   C396       1.0     0.571447     0.829840     0.343639    Uiso  ? C
   H246       1.0     0.575594     0.827043     0.328694    Uiso  ? H
   C397       1.0     0.553605     0.821529     0.350677    Uiso  ? C
   H247       1.0     0.546180     0.810330     0.341950    Uiso  ? H
   C398       1.0     0.547709     0.825671     0.370476    Uiso  ? C
   C399       1.0     0.557531     0.840097     0.381076    Uiso  ? C
   H248       1.0     0.551162     0.844724     0.395482    Uiso  ? H
   C400       1.0     0.530056     0.815433     0.379876    Uiso  ? C
   C401       1.0     0.582319     0.135425     0.378152    Uiso  ? C
   C402       1.0     0.573973     0.153643     0.370415    Uiso  ? C
   C403       1.0     0.582380     0.163012     0.353500    Uiso  ? C
   H249       1.0     0.593125     0.155845     0.343535    Uiso  ? H
   C404       1.0     0.576969     0.183171     0.347589    Uiso  ? C
   H250       1.0     0.585622     0.190320     0.336284    Uiso  ? H
   C405       1.0     0.560652     0.192398     0.356522    Uiso  ? C
   H251       1.0     0.555191     0.206280     0.350501    Uiso  ? H
   C406       1.0     0.549652     0.181421     0.370640    Uiso  ? C
   C407       1.0     0.556922     0.163302     0.378673    Uiso  ? C
   H252       1.0     0.548219     0.155581     0.390806    Uiso  ? H
   C408       1.0     0.531736     0.190889     0.377865    Uiso  ? C
   C409       1.0     0.624929     0.122066     0.426669    Uiso  ? C
   C410       1.0     0.637004     0.134553     0.441304    Uiso  ? C
   C411       1.0     0.658716     0.135070     0.440130    Uiso  ? C
   H253       1.0     0.666780     0.125759     0.429363    Uiso  ? H
   C412       1.0     0.670026     0.145519     0.453652    Uiso  ? C
   H254       1.0     0.686033     0.144381     0.454253    Uiso  ? H
   C413       1.0     0.659792     0.158019     0.468297    Uiso  ? C
   H255       1.0     0.667731     0.166319     0.479425    Uiso  ? H
   C414       1.0     0.638738     0.158550     0.468439    Uiso  ? C
   C415       1.0     0.628047     0.147164     0.455044    Uiso  ? C
   H256       1.0     0.612494     0.146275     0.458252    Uiso  ? H
   C416       1.0     0.628062     0.174297     0.480265    Uiso  ? C
   C417       1.0     0.579599     0.775544     0.530226    Uiso  ? C
   C418       1.0     0.571241     0.767118     0.548665    Uiso  ? C
   C419       1.0     0.581958     0.754512     0.561351    Uiso  ? C
   H257       1.0     0.595482     0.748351     0.555142    Uiso  ? H
   C420       1.0     0.574085     0.750094     0.579819    Uiso  ? C
   H258       1.0     0.581256     0.740439     0.589313    Uiso  ? H
   C421       1.0     0.554377     0.755908     0.585066    Uiso  ? C
   H259       1.0     0.548685     0.753009     0.599752    Uiso  ? H
   C422       1.0     0.543847     0.768982     0.572808    Uiso  ? C
   C423       1.0     0.552474     0.775380     0.555075    Uiso  ? C
   H260       1.0     0.544909     0.785908     0.545122    Uiso  ? H
   C424       1.0     0.526021     0.779201     0.580857    Uiso  ? C
   C425       1.0     0.579396     0.781361     0.468864    Uiso  ? C
   C426       1.0     0.570219     0.771794     0.451276    Uiso  ? C
   C427       1.0     0.577975     0.753670     0.442622    Uiso  ? C
   H261       1.0     0.591046     0.745622     0.447086    Uiso  ? H
   C428       1.0     0.568070     0.744908     0.427077    Uiso  ? C
   H262       1.0     0.573189     0.730662     0.420539    Uiso  ? H
   C429       1.0     0.550648     0.753155     0.420512    Uiso  ? C
   H263       1.0     0.541446     0.746137     0.408356    Uiso  ? H
   C430       1.0     0.543838     0.771681     0.426491    Uiso  ? C
   C431       1.0     0.554028     0.781121     0.442458    Uiso  ? C
   H264       1.0     0.547865     0.795023     0.448328    Uiso  ? H
   C432       1.0     0.526674     0.782311     0.415961    Uiso  ? C
   C433       1.0     0.616215     0.822329     0.522299    Uiso  ? C
   C434       1.0     0.626766     0.837024     0.535171    Uiso  ? C
   C435       1.0     0.646818     0.840279     0.532160    Uiso  ? C
   H265       1.0     0.656103     0.832224     0.521171    Uiso  ? H
   C436       1.0     0.658206     0.854989     0.543689    Uiso  ? C
   H266       1.0     0.673910     0.858443     0.541597    Uiso  ? H
   C437       1.0     0.647735     0.864975     0.558541    Uiso  ? C
   H267       1.0     0.655866     0.875586     0.566816    Uiso  ? H
   C438       1.0     0.627113     0.862135     0.560929    Uiso  ? C
   C439       1.0     0.616182     0.847343     0.549821    Uiso  ? C
   H268       1.0     0.600675     0.844474     0.550632    Uiso  ? H
   C440       1.0     0.615811     0.875024     0.575747    Uiso  ? C
   C441       1.0     0.465316     0.784703     0.412856    Uiso  ? C
   C442       1.0     0.448148     0.776863     0.422535    Uiso  ? C
   C443       1.0     0.437066     0.762375     0.411385    Uiso  ? C
   H269       1.0     0.439936     0.757225     0.397112    Uiso  ? H
   C444       1.0     0.420016     0.753527     0.420695    Uiso  ? C
   H270       1.0     0.408344     0.745584     0.410408    Uiso  ? H
   C445       1.0     0.412769     0.761758     0.438611    Uiso  ? C
   H271       1.0     0.397152     0.759803     0.441457    Uiso  ? H
   C446       1.0     0.423319     0.776253     0.449234    Uiso  ? C
   C447       1.0     0.441004     0.783555     0.441510    Uiso  ? C
   H272       1.0     0.448280     0.795069     0.449487    Uiso  ? H
   C448       1.0     0.413531     0.786018     0.466478    Uiso  ? C
   C449       1.0     0.472421     0.823670     0.381376    Uiso  ? C
   C450       1.0     0.456695     0.835904     0.370420    Uiso  ? C
   C451       1.0     0.448204     0.829178     0.352156    Uiso  ? C
   H273       1.0     0.451698     0.815041     0.344580    Uiso  ? H
   C452       1.0     0.431313     0.838463     0.343915    Uiso  ? C
   H274       1.0     0.424833     0.832069     0.331033    Uiso  ? H
   C453       1.0     0.422480     0.853922     0.354172    Uiso  ? C
   H275       1.0     0.408341     0.859446     0.348928    Uiso  ? H
   C454       1.0     0.430329     0.861058     0.372257    Uiso  ? C
   C455       1.0     0.446164     0.850520     0.381470    Uiso  ? C
   H276       1.0     0.450545     0.853082     0.396363    Uiso  ? H
   C456       1.0     0.421433     0.877159     0.383125    Uiso  ? C
   C457       1.0     0.580463     0.862234     0.621448    Uiso  ? C
   C458       1.0     0.571477     0.843047     0.628326    Uiso  ? C
   C459       1.0     0.581657     0.831106     0.642293    Uiso  ? C
   H277       1.0     0.594758     0.837776     0.648207    Uiso  ? H
   C460       1.0     0.574871     0.812179     0.648546    Uiso  ? C
   H278       1.0     0.582659     0.801427     0.657995    Uiso  ? H
   C461       1.0     0.556647     0.805459     0.641123    Uiso  ? C
   H279       1.0     0.550475     0.790473     0.643753    Uiso  ? H
   C462       1.0     0.546538     0.817577     0.626675    Uiso  ? C
   C463       1.0     0.553218     0.837141     0.622002    Uiso  ? C
   H280       1.0     0.543578     0.847197     0.612726    Uiso  ? H
   C464       1.0     0.528141     0.811416     0.617425    Uiso  ? C
   C465       1.0     0.613310     0.125367     0.582061    Uiso  ? C
   C466       1.0     0.625412     0.138179     0.568225    Uiso  ? C
   C467       1.0     0.646659     0.139238     0.569925    Uiso  ? C
   H281       1.0     0.654917     0.129481     0.579810    Uiso  ? H
   C468       1.0     0.658795     0.151171     0.557059    Uiso  ? C
   H282       1.0     0.675149     0.151012     0.558107    Uiso  ? H
   C469       1.0     0.649887     0.163497     0.543226    Uiso  ? C
   H283       1.0     0.659142     0.170727     0.532153    Uiso  ? H
   C470       1.0     0.628038     0.164566     0.541837    Uiso  ? C
   C471       1.0     0.616437     0.152539     0.555491    Uiso  ? C
   H284       1.0     0.600737     0.153695     0.554610    Uiso  ? H
   C472       1.0     0.618414     0.176846     0.526389    Uiso  ? C
   C473       1.0     0.587380     0.220091     0.467938    Uiso  ? C
   C474       1.0     0.579091     0.230245     0.449638    Uiso  ? C
   C475       1.0     0.591343     0.244045     0.438908    Uiso  ? C
   H285       1.0     0.605100     0.249604     0.444891    Uiso  ? H
   C476       1.0     0.584281     0.251246     0.420993    Uiso  ? C
   H286       1.0     0.593935     0.262728     0.414017    Uiso  ? H
   C477       1.0     0.564912     0.246130     0.414468    Uiso  ? C
   H287       1.0     0.558994     0.254280     0.402046    Uiso  ? H
   C478       1.0     0.553086     0.231905     0.424523    Uiso  ? C
   C479       1.0     0.560722     0.223774     0.442410    Uiso  ? C
   H288       1.0     0.553423     0.209540     0.446800    Uiso  ? H
   C480       1.0     0.534912     0.223480     0.415763    Uiso  ? C
   O217       1.0     0.594522     0.874497     0.421749    Uiso  ? O
   O218       1.0     0.623426     0.883508     0.409071    Uiso  ? O
   O219       1.0     0.577307     0.871575     0.400134    Uiso  ? O
   O220       1.0     0.597719     0.877636     0.373819    Uiso  ? O
   O221       1.0     0.571611     0.122513     0.385411    Uiso  ? O
   O222       1.0     0.602040     0.132868     0.378518    Uiso  ? O
   O223       1.0     0.605792     0.122271     0.427896    Uiso  ? O
   O224       1.0     0.633111     0.112605     0.411406    Uiso  ? O
   O225       1.0     0.569064     0.787487     0.519387    Uiso  ? O
   O226       1.0     0.598392     0.775421     0.527878    Uiso  ? O
   O227       1.0     0.574131     0.799419     0.473391    Uiso  ? O
   O228       1.0     0.594357     0.773348     0.478422    Uiso  ? O
   O229       1.0     0.593645     0.818436     0.476358    Uiso  ? O
   O230       1.0     0.622746     0.807120     0.488658    Uiso  ? O
   O231       1.0     0.597910     0.824840     0.519888    Uiso  ? O
   O232       1.0     0.626266     0.810899     0.511520    Uiso  ? O
   O233       1.0     0.478140     0.792703     0.423906    Uiso  ? O
   O234       1.0     0.467179     0.785286     0.393627    Uiso  ? O
   O235       1.0     0.485661     0.832278     0.391532    Uiso  ? O
   O236       1.0     0.472839     0.805132     0.379177    Uiso  ? O
   O237       1.0     0.527469     0.816621     0.398546    Uiso  ? O
   O238       1.0     0.517198     0.805244     0.369352    Uiso  ? O
   O239       1.0     0.526012     0.800910     0.414905    Uiso  ? O
   O240       1.0     0.513971     0.772021     0.406328    Uiso  ? O
   O241       1.0     0.569299     0.876937     0.614894    Uiso  ? O
   O242       1.0     0.598957     0.864040     0.621586    Uiso  ? O
   O243       1.0     0.596911     0.877360     0.572515    Uiso  ? O
   O244       1.0     0.623366     0.881769     0.591731    Uiso  ? O
   O245       1.0     0.593959     0.124682     0.579934    Uiso  ? O
   O246       1.0     0.622534     0.114012     0.594235    Uiso  ? O
   O247       1.0     0.575464     0.126374     0.601421    Uiso  ? O
   O248       1.0     0.594202     0.119060     0.627348    Uiso  ? O
   O249       1.0     0.598818     0.176333     0.522535    Uiso  ? O
   O250       1.0     0.629787     0.189843     0.516576    Uiso  ? O
   O251       1.0     0.608774     0.173958     0.479819    Uiso  ? O
   O252       1.0     0.636841     0.186522     0.491624    Uiso  ? O
   O253       1.0     0.575864     0.213472     0.481422    Uiso  ? O
   O254       1.0     0.605637     0.217345     0.471083    Uiso  ? O
   O255       1.0     0.583765     0.196728     0.525806    Uiso  ? O
   O256       1.0     0.603069     0.223545     0.523215    Uiso  ? O
   O257       1.0     0.466743     0.817380     0.594682    Uiso  ? O
   O258       1.0     0.476701     0.809384     0.624181    Uiso  ? O
   O259       1.0     0.469721     0.801102     0.575171    Uiso  ? O
   O260       1.0     0.473447     0.773178     0.592717    Uiso  ? O
   O261       1.0     0.517478     0.792767     0.570399    Uiso  ? O
   O262       1.0     0.520009     0.776597     0.599091    Uiso  ? O
   O263       1.0     0.514362     0.822653     0.611690    Uiso  ? O
   O264       1.0     0.524911     0.792410     0.616464    Uiso  ? O
   O265       1.0     0.559623     0.120186     0.418168    Uiso  ? O
   O266       1.0     0.552488     0.830690     0.508268    Uiso  ? O
   O267       1.0     0.497995     0.831923     0.438718    Uiso  ? O
   O268       1.0     0.552038     0.889022     0.569603    Uiso  ? O
   O269       1.0     0.559421     0.175429     0.488430    Uiso  ? O
   O270       1.0     0.502631     0.840133     0.571580    Uiso  ? O
   Zn49       1.0     0.584861     0.106244     0.408221    Uiso  ? Zn
   Zn50       1.0     0.618444     0.106299     0.382984    Uiso  ? Zn
   Zn51       1.0     0.576152     0.812439     0.502038    Uiso  ? Zn
   Zn52       1.0     0.614057     0.781000     0.502394    Uiso  ? Zn
   Zn53       1.0     0.498677     0.815555     0.413945    Uiso  ? Zn
   Zn54       1.0     0.497408     0.783471     0.382629    Uiso  ? Zn
   Zn55       1.0     0.577386     0.893938     0.588925    Uiso  ? Zn
   Zn56       1.0     0.611401     0.893895     0.619117    Uiso  ? Zn
   Zn57       1.0     0.585678     0.188902     0.497100    Uiso  ? Zn
   Zn58       1.0     0.621365     0.214568     0.498340    Uiso  ? Zn
   Zn59       1.0     0.497775     0.813331     0.585658    Uiso  ? Zn
   Zn60       1.0     0.493304     0.783675     0.616045    Uiso  ? Zn
   C481       1.0     0.383001     0.134085     0.578554    Uiso  ? C
   C482       1.0     0.372341     0.149090     0.564753    Uiso  ? C
   C483       1.0     0.350897     0.151629     0.564850    Uiso  ? C
   H289       1.0     0.342289     0.141500     0.573089    Uiso  ? H
   C484       1.0     0.341241     0.165416     0.552702    Uiso  ? C
   H290       1.0     0.325570     0.166621     0.551322    Uiso  ? H
   C485       1.0     0.353121     0.177747     0.539736    Uiso  ? C
   H291       1.0     0.344836     0.187340     0.529237    Uiso  ? H
   C486       1.0     0.374022     0.176612     0.539829    Uiso  ? C
   C487       1.0     0.383295     0.161856     0.552327    Uiso  ? C
   H292       1.0     0.399698     0.162048     0.552915    Uiso  ? H
   C488       1.0     0.386425     0.190171     0.525905    Uiso  ? C
   C489       1.0     0.417915     0.139318     0.613843    Uiso  ? C
   C490       1.0     0.427530     0.156147     0.626228    Uiso  ? C
   C491       1.0     0.420122     0.161517     0.646014    Uiso  ? C
   H293       1.0     0.407422     0.154449     0.651513    Uiso  ? H
   C492       1.0     0.429796     0.177095     0.656738    Uiso  ? C
   H294       1.0     0.424918     0.180700     0.671167    Uiso  ? H
   C493       1.0     0.446275     0.185293     0.648432    Uiso  ? C
   H295       1.0     0.454828     0.197138     0.656914    Uiso  ? H
   C494       1.0     0.451965     0.181536     0.628316    Uiso  ? C
   C495       1.0     0.441673     0.167022     0.617007    Uiso  ? C
   H296       1.0     0.447314     0.164355     0.602373    Uiso  ? H
   C496       1.0     0.470756     0.190988     0.619797    Uiso  ? C
   C497       1.0     0.412328     0.870361     0.617475    Uiso  ? C
   C498       1.0     0.419368     0.850067     0.624246    Uiso  ? C
   C499       1.0     0.409083     0.838292     0.637729    Uiso  ? C
   H297       1.0     0.396366     0.846063     0.644758    Uiso  ? H
   C500       1.0     0.417954     0.820269     0.644698    Uiso  ? C
   H298       1.0     0.410979     0.812615     0.657081    Uiso  ? H
   C501       1.0     0.433991     0.812512     0.634374    Uiso  ? C
   H299       1.0     0.440274     0.797240     0.639259    Uiso  ? H
   C502       1.0     0.445492     0.824010     0.621443    Uiso  ? C
   C503       1.0     0.437204     0.842759     0.615115    Uiso  ? C
   H300       1.0     0.445859     0.851509     0.603812    Uiso  ? H
   C504       1.0     0.464002     0.816694     0.612950    Uiso  ? C
   C505       1.0     0.382057     0.874937     0.579949    Uiso  ? C
   C506       1.0     0.371801     0.858966     0.568457    Uiso  ? C
   C507       1.0     0.351299     0.858091     0.571376    Uiso  ? C
   H301       1.0     0.343655     0.866838     0.581067    Uiso  ? H
   C508       1.0     0.341615     0.843354     0.561232    Uiso  ? C
   H302       1.0     0.325514     0.840673     0.564116    Uiso  ? H
   C509       1.0     0.350975     0.830505     0.547292    Uiso  ? C
   H303       1.0     0.342866     0.817583     0.541190    Uiso  ? H
   C510       1.0     0.370078     0.833283     0.542620    Uiso  ? C
   C511       1.0     0.381246     0.847993     0.553349    Uiso  ? C
   H304       1.0     0.395780     0.849727     0.549566    Uiso  ? H
   C512       1.0     0.379607     0.822356     0.525638    Uiso  ? C
   C513       1.0     0.426000     0.227874     0.472028    Uiso  ? C
   C514       1.0     0.437665     0.237800     0.456448    Uiso  ? C
   C515       1.0     0.436147     0.258255     0.455272    Uiso  ? C
   H305       1.0     0.426386     0.266482     0.464249    Uiso  ? H
   C516       1.0     0.446996     0.268323     0.439790    Uiso  ? C
   H306       1.0     0.443534     0.285356     0.437372    Uiso  ? H
   C517       1.0     0.457383     0.258100     0.425817    Uiso  ? C
   H307       1.0     0.463831     0.265698     0.412886    Uiso  ? H
   C518       1.0     0.460597     0.237259     0.427690    Uiso  ? C
   C519       1.0     0.451321     0.227757     0.444191    Uiso  ? C
   H308       1.0     0.453536     0.211838     0.446742    Uiso  ? H
   C520       1.0     0.476300     0.226365     0.416723    Uiso  ? C
   C521       1.0     0.423743     0.226009     0.529738    Uiso  ? C
   C522       1.0     0.436472     0.236952     0.544600    Uiso  ? C
   C523       1.0     0.433348     0.256822     0.550308    Uiso  ? C
   H309       1.0     0.420307     0.265967     0.543944    Uiso  ? H
   C524       1.0     0.445186     0.266247     0.565239    Uiso  ? C
   H310       1.0     0.442398     0.281701     0.569661    Uiso  ? H
   C525       1.0     0.459070     0.254976     0.575536    Uiso  ? C
   H311       1.0     0.466466     0.261812     0.587060    Uiso  ? H
   C526       1.0     0.462034     0.234257     0.570880    Uiso  ? C
   C527       1.0     0.451701     0.226543     0.554546    Uiso  ? C
   H312       1.0     0.451763     0.210451     0.554324    Uiso  ? H
   C528       1.0     0.476467     0.222488     0.583101    Uiso  ? C
   C529       1.0     0.387464     0.194972     0.469216    Uiso  ? C
   C530       1.0     0.378268     0.184904     0.451209    Uiso  ? C
   C531       1.0     0.362680     0.194600     0.441542    Uiso  ? C
   H313       1.0     0.356246     0.207169     0.448692    Uiso  ? H
   C532       1.0     0.353261     0.186781     0.424296    Uiso  ? C
   H314       1.0     0.340528     0.194171     0.417534    Uiso  ? H
   C533       1.0     0.361198     0.168941     0.416331    Uiso  ? C
   H315       1.0     0.356016     0.163733     0.402068    Uiso  ? H
   C534       1.0     0.377840     0.159927     0.425197    Uiso  ? C
   C535       1.0     0.386098     0.167044     0.443135    Uiso  ? C
   H316       1.0     0.400443     0.161267     0.448251    Uiso  ? H
   C536       1.0     0.387125     0.141557     0.416598    Uiso  ? C
   C537       1.0     0.537431     0.217535     0.588256    Uiso  ? C
   C538       1.0     0.555573     0.223808     0.579373    Uiso  ? C
   C539       1.0     0.567764     0.237821     0.589094    Uiso  ? C
   H317       1.0     0.563486     0.242787     0.603860    Uiso  ? H
   C540       1.0     0.587082     0.242126     0.583354    Uiso  ? C
   H318       1.0     0.597311     0.249040     0.592830    Uiso  ? H
   C541       1.0     0.593331     0.233270     0.564083    Uiso  ? C
   H319       1.0     0.607947     0.238523     0.560448    Uiso  ? H
   C542       1.0     0.581569     0.221414     0.552372    Uiso  ? C
   C543       1.0     0.562478     0.215292     0.559905    Uiso  ? C
   H320       1.0     0.552874     0.206146     0.550853    Uiso  ? H
   C544       1.0     0.589640     0.213187     0.532458    Uiso  ? C
   C545       1.0     0.531137     0.184383     0.621910    Uiso  ? C
   C546       1.0     0.549714     0.175479     0.629629    Uiso  ? C
   C547       1.0     0.560270     0.183919     0.645405    Uiso  ? C
   H321       1.0     0.554878     0.196835     0.653542    Uiso  ? H
   C548       1.0     0.578148     0.175096     0.652928    Uiso  ? C
   H322       1.0     0.586912     0.181989     0.664948    Uiso  ? H
   C549       1.0     0.583864     0.156832     0.645199    Uiso  ? C
   H323       1.0     0.598251     0.150575     0.649421    Uiso  ? H
   C550       1.0     0.574006     0.148742     0.628770    Uiso  ? C
   C551       1.0     0.556357     0.157399     0.621263    Uiso  ? C
   H324       1.0     0.547694     0.151095     0.608005    Uiso  ? H
   C552       1.0     0.581150     0.130079     0.618834    Uiso  ? C
   C553       1.0     0.417924     0.140011     0.381320    Uiso  ? C
   C554       1.0     0.427836     0.157296     0.371219    Uiso  ? C
   C555       1.0     0.424053     0.159666     0.349938    Uiso  ? C
   H325       1.0     0.414070     0.148276     0.341898    Uiso  ? H
   C556       1.0     0.436050     0.173811     0.340047    Uiso  ? C
   H326       1.0     0.433593     0.175308     0.323833    Uiso  ? H
   C557       1.0     0.451273     0.185249     0.349519    Uiso  ? C
   H327       1.0     0.458466     0.196903     0.341400    Uiso  ? H
   C558       1.0     0.455883     0.180603     0.369781    Uiso  ? C
   C559       1.0     0.443234     0.167598     0.381035    Uiso  ? C
   H328       1.0     0.445136     0.165031     0.396620    Uiso  ? H
   C560       1.0     0.473206     0.189633     0.380832    Uiso  ? C
   C561       1.0     0.380113     0.873697     0.413116    Uiso  ? C
   C562       1.0     0.371051     0.855258     0.422057    Uiso  ? C
   C563       1.0     0.357558     0.844420     0.410803    Uiso  ? C
   H329       1.0     0.354164     0.847127     0.395062    Uiso  ? H
   C564       1.0     0.348152     0.827596     0.419340    Uiso  ? C
   H330       1.0     0.337640     0.818239     0.411532    Uiso  ? H
   C565       1.0     0.356186     0.819723     0.436417    Uiso  ? C
   H331       1.0     0.347778     0.806215     0.443854    Uiso  ? H
   C566       1.0     0.370245     0.830316     0.448193    Uiso  ? C
   C567       1.0     0.376862     0.848828     0.441463    Uiso  ? C
   H332       1.0     0.388746     0.857305     0.448779    Uiso  ? H
   C568       1.0     0.379624     0.820571     0.466071    Uiso  ? C
   C569       1.0     0.412151     0.785393     0.525593    Uiso  ? C
   C570       1.0     0.423923     0.774541     0.540200    Uiso  ? C
   C571       1.0     0.423847     0.753938     0.539969    Uiso  ? C
   H333       1.0     0.414932     0.745763     0.528684    Uiso  ? H
   C572       1.0     0.434361     0.742633     0.554264    Uiso  ? C
   H334       1.0     0.429297     0.727732     0.555734    Uiso  ? H
   C573       1.0     0.449153     0.751937     0.565297    Uiso  ? C
   H335       1.0     0.460507     0.743500     0.573304    Uiso  ? H
   C574       1.0     0.449838     0.772695     0.566177    Uiso  ? C
   C575       1.0     0.438175     0.783804     0.552672    Uiso  ? C
   H336       1.0     0.440934     0.800016     0.553335    Uiso  ? H
   C576       1.0     0.465055     0.782447     0.578229    Uiso  ? C
   O271       1.0     0.401278     0.129493     0.576277    Uiso  ? O
   O272       1.0     0.372544     0.125747     0.592077    Uiso  ? O
   O273       1.0     0.421673     0.135072     0.595894    Uiso  ? O
   O274       1.0     0.407422     0.127384     0.624407    Uiso  ? O
   O275       1.0     0.424757     0.883086     0.612015    Uiso  ? O
   O276       1.0     0.393762     0.874585     0.616476    Uiso  ? O
   O277       1.0     0.397076     0.884474     0.571894    Uiso  ? O
   O278       1.0     0.376925     0.878289     0.597866    Uiso  ? O
   O279       1.0     0.433122     0.214115     0.482366    Uiso  ? O
   O280       1.0     0.407212     0.231644     0.473070    Uiso  ? O
   O281       1.0     0.422575     0.206549     0.530769    Uiso  ? O
   O282       1.0     0.415112     0.236482     0.516682    Uiso  ? O
   O283       1.0     0.405430     0.188360     0.526370    Uiso  ? O
   O284       1.0     0.378672     0.201915     0.514338    Uiso  ? O
   O285       1.0     0.397082     0.184668     0.481720    Uiso  ? O
   O286       1.0     0.387544     0.213661     0.471667    Uiso  ? O
   O287       1.0     0.526344     0.207121     0.577645    Uiso  ? O
   O288       1.0     0.533449     0.219964     0.607146    Uiso  ? O
   O289       1.0     0.517773     0.175414     0.612329    Uiso  ? O
   O290       1.0     0.529148     0.202951     0.622706    Uiso  ? O
   O291       1.0     0.474179     0.190680     0.601371    Uiso  ? O
   O292       1.0     0.484435     0.196848     0.630985    Uiso  ? O
   O293       1.0     0.476760     0.203375     0.581256    Uiso  ? O
   O294       1.0     0.487893     0.231193     0.594754    Uiso  ? O
   O295       1.0     0.419087     0.138408     0.400391    Uiso  ? O
   O296       1.0     0.409082     0.126659     0.371129    Uiso  ? O
   O297       1.0     0.406122     0.139454     0.417403    Uiso  ? O
   O298       1.0     0.375823     0.128946     0.407023    Uiso  ? O
   O299       1.0     0.389784     0.885444     0.423831    Uiso  ? O
   O300       1.0     0.379716     0.876221     0.393891    Uiso  ? O
   O301       1.0     0.430836     0.888989     0.393605    Uiso  ? O
   O302       1.0     0.402754     0.879088     0.380073    Uiso  ? O
   O303       1.0     0.389250     0.831170     0.478267    Uiso  ? O
   O304       1.0     0.377482     0.801661     0.467373    Uiso  ? O
   O305       1.0     0.397891     0.823000     0.522724    Uiso  ? O
   O306       1.0     0.368837     0.812297     0.513509    Uiso  ? O
   O307       1.0     0.414605     0.804289     0.524921    Uiso  ? O
   O308       1.0     0.402274     0.776370     0.511950    Uiso  ? O
   O309       1.0     0.424522     0.793933     0.479420    Uiso  ? O
   O310       1.0     0.394912     0.784170     0.468678    Uiso  ? O
   O311       1.0     0.519062     0.180709     0.387153    Uiso  ? O
   O312       1.0     0.530229     0.210042     0.377244    Uiso  ? O
   O313       1.0     0.522880     0.213397     0.425410    Uiso  ? O
   O314       1.0     0.533260     0.225023     0.396717    Uiso  ? O
   O315       1.0     0.475658     0.206476     0.415755    Uiso  ? O
   O316       1.0     0.489584     0.235803     0.407423    Uiso  ? O
   O317       1.0     0.474609     0.190579     0.399620    Uiso  ? O
   O318       1.0     0.484176     0.200077     0.370200    Uiso  ? O
   O319       1.0     0.443665     0.102771     0.569672    Uiso  ? O
   O320       1.0     0.439896     0.174063     0.491177    Uiso  ? O
   O321       1.0     0.503423     0.160270     0.571810    Uiso  ? O
   O322       1.0     0.436752     0.106811     0.438811    Uiso  ? O
   O323       1.0     0.435120     0.836920     0.488265    Uiso  ? O
   O324       1.0     0.507398     0.171141     0.432472    Uiso  ? O
   Zn61       1.0     0.419570     0.104853     0.587598    Uiso  ? Zn
   Zn62       1.0     0.382810     0.108973     0.614760    Uiso  ? Zn
   Zn63       1.0     0.420045     0.193869     0.500335    Uiso  ? Zn
   Zn64       1.0     0.391626     0.225731     0.500165    Uiso  ? Zn
   Zn65       1.0     0.503329     0.188215     0.587822    Uiso  ? Zn
   Zn66       1.0     0.502709     0.218981     0.619803    Uiso  ? Zn
   Zn67       1.0     0.416476     0.109473     0.415458    Uiso  ? Zn
   Zn68       1.0     0.385509     0.109098     0.384746    Uiso  ? Zn
   Zn69       1.0     0.411940     0.816231     0.495555    Uiso  ? Zn
   Zn70       1.0     0.379707     0.788074     0.496187    Uiso  ? Zn
   Zn71       1.0     0.503347     0.192191     0.412135    Uiso  ? Zn
   Zn72       1.0     0.503833     0.224168     0.381704    Uiso  ? Zn
   H337       1.0     0.442493     0.165189     0.503016    Uiso  ? H
   H338       1.0     0.440893     0.172389     0.477087    Uiso  ? H
   H339       1.0     0.539945     0.827183     0.505414    Uiso  ? H
   H340       1.0     0.556693     0.840482     0.517486    Uiso  ? H
   H341       1.0     0.494020     0.840601     0.560090    Uiso  ? H
   H342       1.0     0.512080     0.850784     0.574502    Uiso  ? H
   H343       1.0     0.552971     0.893985     0.555901    Uiso  ? H
   H344       1.0     0.542317     0.878025     0.572269    Uiso  ? H
   H345       1.0     0.499284     0.159312     0.432986    Uiso  ? H
   H346       1.0     0.518098     0.172886     0.442151    Uiso  ? H
   H347       1.0     0.545675     0.115686     0.416186    Uiso  ? H
   H348       1.0     0.564117     0.132046     0.424147    Uiso  ? H
   H349       1.0     0.561376     0.160423     0.490577    Uiso  ? H
   H350       1.0     0.551216     0.180320     0.477670    Uiso  ? H
   H351       1.0     0.446197     0.894380     0.434613    Uiso  ? H
   H352       1.0     0.434464     0.110945     0.451916    Uiso  ? H
   H353       1.0     0.491454     0.845261     0.436737    Uiso  ? H
   H354       1.0     0.508499     0.828784     0.448865    Uiso  ? H
   H355       1.0     0.447280     0.831802     0.484170    Uiso  ? H
   H356       1.0     0.433171     0.851366     0.486695    Uiso  ? H
   H357       1.0     0.511294     0.149320     0.576024    Uiso  ? H
   H358       1.0     0.498686     0.158611     0.557634    Uiso  ? H
   H359       1.0     0.456037     0.109642     0.573352    Uiso  ? H
   H360       1.0     0.443958     0.887710     0.561454    Uiso  ? H
   C577       1.0     0.431447     0.385749     0.119844    Uiso  ? C
   C578       1.0     0.445976     0.373648     0.131992    Uiso  ? C
   C579       1.0     0.447988     0.352824     0.130384    Uiso  ? C
   H361       1.0     0.440136     0.344508     0.118348    Uiso  ? H
   C580       1.0     0.459750     0.341516     0.144847    Uiso  ? C
   H362       1.0     0.459228     0.325040     0.143131    Uiso  ? H
   C581       1.0     0.472520     0.351743     0.157862    Uiso  ? C
   H363       1.0     0.482649     0.343609     0.167998    Uiso  ? H
   C582       1.0     0.471018     0.373015     0.158881    Uiso  ? C
   C583       1.0     0.457082     0.383380     0.147378    Uiso  ? C
   H364       1.0     0.453584     0.398494     0.150938    Uiso  ? H
   C584       1.0     0.482164     0.384464     0.173779    Uiso  ? C
   C585       1.0     0.380749     0.418891     0.131584    Uiso  ? C
   C586       1.0     0.370075     0.429190     0.147825    Uiso  ? C
   C587       1.0     0.349426     0.425006     0.151233    Uiso  ? C
   H365       1.0     0.340214     0.413896     0.144152    Uiso  ? H
   C588       1.0     0.338372     0.436873     0.164779    Uiso  ? C
   H366       1.0     0.323737     0.432932     0.169104    Uiso  ? H
   C589       1.0     0.347860     0.452655     0.174880    Uiso  ? C
   H367       1.0     0.339941     0.460946     0.187263    Uiso  ? H
   C590       1.0     0.368792     0.455617     0.171806    Uiso  ? C
   C591       1.0     0.379333     0.444817     0.158100    Uiso  ? C
   H368       1.0     0.394571     0.447772     0.155923    Uiso  ? H
   C592       1.0     0.379571     0.471094     0.183495    Uiso  ? C
   C593       1.0     0.386202     0.416500     0.869110    Uiso  ? C
   C594       1.0     0.376154     0.424435     0.851454    Uiso  ? C
   C595       1.0     0.361601     0.413444     0.841283    Uiso  ? C
   H369       1.0     0.356768     0.399311     0.847109    Uiso  ? H
   C596       1.0     0.354478     0.418830     0.822868    Uiso  ? C
   H370       1.0     0.343862     0.410305     0.814342    Uiso  ? H
   C597       1.0     0.362701     0.435409     0.814336    Uiso  ? C
   H371       1.0     0.356046     0.439322     0.799979    Uiso  ? H
   C598       1.0     0.376449     0.447578     0.823479    Uiso  ? C
   C599       1.0     0.384176     0.441110     0.842282    Uiso  ? C
   H372       1.0     0.396616     0.449168     0.849015    Uiso  ? H
   C600       1.0     0.387164     0.463160     0.812409    Uiso  ? C
   C601       1.0     0.421396     0.385978     0.874266    Uiso  ? C
   C602       1.0     0.430350     0.374098     0.857326    Uiso  ? C
   C603       1.0     0.423568     0.354524     0.853521    Uiso  ? C
   H373       1.0     0.410834     0.346477     0.860873    Uiso  ? H
   C604       1.0     0.430211     0.344884     0.836328    Uiso  ? C
   H374       1.0     0.425946     0.330264     0.832796    Uiso  ? H
   C605       1.0     0.445379     0.352501     0.824990    Uiso  ? C
   H375       1.0     0.450724     0.344859     0.811716    Uiso  ? H
   C606       1.0     0.453788     0.370974     0.830374    Uiso  ? C
   C607       1.0     0.444663     0.382356     0.844780    Uiso  ? C
   H376       1.0     0.450650     0.397316     0.848566    Uiso  ? H
   C608       1.0     0.471829     0.380012     0.821337    Uiso  ? C
   C609       1.0     0.536045     0.418218     0.216097    Uiso  ? C
   C610       1.0     0.555752     0.425748     0.224039    Uiso  ? C
   C611       1.0     0.565714     0.416590     0.240539    Uiso  ? C
   H377       1.0     0.559596     0.405164     0.249116    Uiso  ? H
   C612       1.0     0.584192     0.424351     0.247810    Uiso  ? C
   H378       1.0     0.591498     0.420665     0.261890    Uiso  ? H
   C613       1.0     0.592278     0.441241     0.238103    Uiso  ? C
   H379       1.0     0.604276     0.447073     0.246267    Uiso  ? H
   C614       1.0     0.582079     0.451030     0.222751    Uiso  ? C
   C615       1.0     0.563861     0.443317     0.215992    Uiso  ? C
   H380       1.0     0.556341     0.449627     0.204701    Uiso  ? H
   C616       1.0     0.590128     0.470516     0.216080    Uiso  ? C
   C617       1.0     0.475220     0.425711     0.219436    Uiso  ? C
   C618       1.0     0.459559     0.436827     0.229728    Uiso  ? C
   C619       1.0     0.454409     0.432396     0.250068    Uiso  ? C
   H381       1.0     0.463311     0.421646     0.256877    Uiso  ? H
   C620       1.0     0.439763     0.441214     0.260008    Uiso  ? C
   H382       1.0     0.436538     0.435828     0.275885    Uiso  ? H
   C621       1.0     0.427693     0.454564     0.250457    Uiso  ? C
   H383       1.0     0.416187     0.460739     0.259004    Uiso  ? H
   C622       1.0     0.431101     0.460385     0.230322    Uiso  ? C
   C623       1.0     0.447189     0.451513     0.220110    Uiso  ? C
   H384       1.0     0.449988     0.452551     0.204829    Uiso  ? H
   C624       1.0     0.417583     0.474871     0.220299    Uiso  ? C
   C625       1.0     0.531550     0.390755     0.178371    Uiso  ? C
   C626       1.0     0.544798     0.379831     0.164850    Uiso  ? C
   C627       1.0     0.546394     0.358675     0.165998    Uiso  ? C
   H385       1.0     0.538103     0.351081     0.177425    Uiso  ? H
   C628       1.0     0.559955     0.348428     0.154217    Uiso  ? C
   H386       1.0     0.562586     0.332533     0.157769    Uiso  ? H
   C629       1.0     0.572932     0.359481     0.141629    Uiso  ? C
   H387       1.0     0.585586     0.349614     0.134236    Uiso  ? H
   C630       1.0     0.571845     0.379834     0.140527    Uiso  ? C
   C631       1.0     0.557462     0.390340     0.151948    Uiso  ? C
   H388       1.0     0.556691     0.406030     0.152466    Uiso  ? H
   C632       1.0     0.583106     0.388672     0.123687    Uiso  ? C
   C633       1.0     0.418506     0.530585     0.217463    Uiso  ? C
   C634       1.0     0.430211     0.547062     0.225360    Uiso  ? C
   C635       1.0     0.427916     0.551795     0.245039    Uiso  ? C
   H389       1.0     0.418628     0.544318     0.256216    Uiso  ? H
   C636       1.0     0.438648     0.567399     0.254172    Uiso  ? C
   H390       1.0     0.435108     0.567169     0.271477    Uiso  ? H
   C637       1.0     0.452657     0.577987     0.242851    Uiso  ? C
   H391       1.0     0.463330     0.587472     0.251364    Uiso  ? H
   C638       1.0     0.455285     0.573906     0.222736    Uiso  ? C
   C639       1.0     0.443735     0.558625     0.213676    Uiso  ? C
   H392       1.0     0.445683     0.553402     0.197936    Uiso  ? H
   C640       1.0     0.471298     0.585368     0.212127    Uiso  ? C
   C641       1.0     0.377791     0.531771     0.189297    Uiso  ? C
   C642       1.0     0.368831     0.549549     0.180485    Uiso  ? C
   C643       1.0     0.355105     0.561503     0.191091    Uiso  ? C
   H393       1.0     0.350024     0.558247     0.206502    Uiso  ? H
   C644       1.0     0.348902     0.579917     0.182816    Uiso  ? C
   H394       1.0     0.342219     0.591764     0.192107    Uiso  ? H
   C645       1.0     0.354670     0.585732     0.163905    Uiso  ? C
   H395       1.0     0.352274     0.600992     0.159136    Uiso  ? H
   C646       1.0     0.368458     0.573671     0.152881    Uiso  ? C
   C647       1.0     0.375669     0.555436     0.161635    Uiso  ? C
   H396       1.0     0.387018     0.546758     0.152139    Uiso  ? H
   C648       1.0     0.377606     0.580731     0.134813    Uiso  ? C
   C649       1.0     0.620382     0.428546     0.118265    Uiso  ? C
   C650       1.0     0.632003     0.441821     0.131780    Uiso  ? C
   C651       1.0     0.652948     0.441517     0.131909    Uiso  ? C
   H397       1.0     0.661173     0.433757     0.121157    Uiso  ? H
   C652       1.0     0.663383     0.453650     0.145060    Uiso  ? C
   H398       1.0     0.679359     0.452104     0.145735    Uiso  ? H
   C653       1.0     0.653370     0.466977     0.156934    Uiso  ? C
   H399       1.0     0.661336     0.475423     0.167554    Uiso  ? H
   C654       1.0     0.632578     0.468002     0.156632    Uiso  ? C
   C655       1.0     0.621601     0.456073     0.143204    Uiso  ? C
   H400       1.0     0.604648     0.455153     0.144722    Uiso  ? H
   C656       1.0     0.622409     0.481950     0.170385    Uiso  ? C
   C657       1.0     0.594422     0.380753     0.863495    Uiso  ? C
   C658       1.0     0.585740     0.369893     0.846671    Uiso  ? C
   C659       1.0     0.594055     0.352826     0.839088    Uiso  ? C
   H401       1.0     0.608045     0.348087     0.846684    Uiso  ? H
   C660       1.0     0.585813     0.343758     0.822732    Uiso  ? C
   H402       1.0     0.592994     0.329639     0.817133    Uiso  ? H
   C661       1.0     0.568259     0.351350     0.814549    Uiso  ? C
   H403       1.0     0.561959     0.343236     0.802312    Uiso  ? H
   C662       1.0     0.558501     0.368005     0.822753    Uiso  ? C
   C663       1.0     0.566849     0.377003     0.839673    Uiso  ? C
   H404       1.0     0.557660     0.387196     0.847210    Uiso  ? H
   C664       1.0     0.539794     0.376400     0.815396    Uiso  ? C
   C665       1.0     0.478481     0.412786     0.784377    Uiso  ? C
   C666       1.0     0.461963     0.422033     0.774244    Uiso  ? C
   C667       1.0     0.453077     0.412124     0.757668    Uiso  ? C
   H405       1.0     0.459678     0.399991     0.750563    Uiso  ? H
   C668       1.0     0.436135     0.418721     0.748724    Uiso  ? C
   H406       1.0     0.430183     0.411798     0.735228    Uiso  ? H
   C669       1.0     0.426513     0.435226     0.757255    Uiso  ? C
   H407       1.0     0.412661     0.438317     0.752197    Uiso  ? H
   C670       1.0     0.434071     0.446461     0.772928    Uiso  ? C
   C671       1.0     0.452883     0.440118     0.780931    Uiso  ? C
   H408       1.0     0.461673     0.450413     0.791699    Uiso  ? H
   C672       1.0     0.422647     0.463588     0.778776    Uiso  ? C
   O325       1.0     0.435994     0.404345     0.116598    Uiso  ? O
   O326       1.0     0.414411     0.378923     0.113760    Uiso  ? O
   O327       1.0     0.392771     0.427694     0.118922    Uiso  ? O
   O328       1.0     0.377397     0.400411     0.129573    Uiso  ? O
   O329       1.0     0.403967     0.422377     0.872605    Uiso  ? O
   O330       1.0     0.375826     0.406635     0.880413    Uiso  ? O
   O331       1.0     0.421188     0.405341     0.874074    Uiso  ? O
   O332       1.0     0.412282     0.376275     0.887952    Uiso  ? O
   O333       1.0     0.528812     0.425168     0.199439    Uiso  ? O
   O334       1.0     0.527367     0.403004     0.223865    Uiso  ? O
   O335       1.0     0.486655     0.434437     0.207519    Uiso  ? O
   O336       1.0     0.476459     0.406600     0.220741    Uiso  ? O
   O337       1.0     0.481459     0.403525     0.173436    Uiso  ? O
   O338       1.0     0.492533     0.375529     0.187235    Uiso  ? O
   O339       1.0     0.531122     0.409749     0.178985    Uiso  ? O
   O340       1.0     0.519039     0.380396     0.188504    Uiso  ? O
   O341       1.0     0.426352     0.519013     0.204830    Uiso  ? O
   O342       1.0     0.400821     0.528264     0.222381    Uiso  ? O
   O343       1.0     0.384831     0.518819     0.177746    Uiso  ? O
   O344       1.0     0.380305     0.530200     0.208372    Uiso  ? O
   O345       1.0     0.398719     0.471382     0.184935    Uiso  ? O
   O346       1.0     0.370509     0.486116     0.191531    Uiso  ? O
   O347       1.0     0.416488     0.474831     0.201053    Uiso  ? O
   O348       1.0     0.406702     0.485843     0.229842    Uiso  ? O
   O349       1.0     0.601414     0.428999     0.118541    Uiso  ? O
   O350       1.0     0.628968     0.414838     0.108891    Uiso  ? O
   O351       1.0     0.583433     0.407426     0.121604    Uiso  ? O
   O352       1.0     0.591998     0.378273     0.109559    Uiso  ? O
   O353       1.0     0.582118     0.388909     0.875438    Uiso  ? O
   O354       1.0     0.613233     0.383628     0.864866    Uiso  ? O
   O355       1.0     0.607534     0.432988     0.873394    Uiso  ? O
   O356       1.0     0.622695     0.404713     0.864459    Uiso  ? O
   O357       1.0     0.527813     0.386027     0.827346    Uiso  ? O
   O358       1.0     0.535046     0.373698     0.796955    Uiso  ? O
   O359       1.0     0.475198     0.399050     0.820819    Uiso  ? O
   O360       1.0     0.483039     0.368676     0.810523    Uiso  ? O
   O361       1.0     0.479731     0.412610     0.803594    Uiso  ? O
   O362       1.0     0.491513     0.402688     0.773652    Uiso  ? O
   O363       1.0     0.520108     0.426958     0.802607    Uiso  ? O
   O364       1.0     0.519895     0.405141     0.778214    Uiso  ? O
   O365       1.0     0.601125     0.525502     0.174694    Uiso  ? O
   O366       1.0     0.630391     0.515379     0.187312    Uiso  ? O
   O367       1.0     0.583658     0.531657     0.192306    Uiso  ? O
   O368       1.0     0.595280     0.522195     0.221453    Uiso  ? O
   O369       1.0     0.577473     0.483993     0.211722    Uiso  ? O
   O370       1.0     0.608700     0.472691     0.213028    Uiso  ? O
   O371       1.0     0.604179     0.485649     0.167579    Uiso  ? O
   O372       1.0     0.630643     0.488451     0.185953    Uiso  ? O
   O373       1.0     0.432519     0.448810     0.101726    Uiso  ? O
   O374       1.0     0.501435     0.444380     0.161859    Uiso  ? O
   O375       1.0     0.429112     0.503948     0.158629    Uiso  ? O
   O376       1.0     0.557168     0.426752     0.884785    Uiso  ? O
   O377       1.0     0.509000     0.422188     0.847996    Uiso  ? O
   O378       1.0     0.557617     0.495552     0.170552    Uiso  ? O
   Zn73       1.0     0.415819     0.422457     0.101012    Uiso  ? Zn
   Zn74       1.0     0.385026     0.388588     0.102467    Uiso  ? Zn
   Zn75       1.0     0.502588     0.422310     0.184180    Uiso  ? Zn
   Zn76       1.0     0.501142     0.389240     0.214569    Uiso  ? Zn
   Zn77       1.0     0.410148     0.501297     0.183695    Uiso  ? Zn
   Zn78       1.0     0.381188     0.501637     0.218225    Uiso  ? Zn
   Zn79       1.0     0.585907     0.416921     0.892106    Uiso  ? Zn
   Zn80       1.0     0.618226     0.388146     0.893991    Uiso  ? Zn
   Zn81       1.0     0.505971     0.408313     0.819919    Uiso  ? Zn
   Zn82       1.0     0.505487     0.376692     0.788341    Uiso  ? Zn
   Zn83       1.0     0.584392     0.501792     0.186333    Uiso  ? Zn
   Zn84       1.0     0.618596     0.501433     0.212781    Uiso  ? Zn
   C673       1.0     0.579593     0.618525     0.869395    Uiso  ? C
   C674       1.0     0.568745     0.628469     0.852747    Uiso  ? C
   C675       1.0     0.577069     0.645387     0.843876    Uiso  ? C
   H409       1.0     0.588494     0.653700     0.851141    Uiso  ? H
   C676       1.0     0.570684     0.652841     0.825779    Uiso  ? C
   H410       1.0     0.580275     0.663061     0.817246    Uiso  ? H
   C677       1.0     0.553797     0.643669     0.817285    Uiso  ? C
   H411       1.0     0.547725     0.648678     0.803991    Uiso  ? H
   C678       1.0     0.542198     0.629094     0.826815    Uiso  ? C
   C679       1.0     0.550752     0.621277     0.844669    Uiso  ? C
   H412       1.0     0.543629     0.608208     0.850949    Uiso  ? H
   C680       1.0     0.524428     0.621182     0.817706    Uiso  ? C
   C681       1.0     0.617339     0.585275     0.860566    Uiso  ? C
   C682       1.0     0.624162     0.578620     0.840426    Uiso  ? C
   C683       1.0     0.634948     0.591409     0.828009    Uiso  ? C
   H413       1.0     0.639139     0.606123     0.833258    Uiso  ? H
   C684       1.0     0.640951     0.585832     0.809257    Uiso  ? C
   H414       1.0     0.649009     0.596710     0.801226    Uiso  ? H
   C685       1.0     0.635464     0.567583     0.801861    Uiso  ? C
   H415       1.0     0.639633     0.563297     0.786378    Uiso  ? H
   C686       1.0     0.625317     0.554564     0.813522    Uiso  ? C
   C687       1.0     0.620991     0.559441     0.834308    Uiso  ? C
   H416       1.0     0.612574     0.550342     0.844159    Uiso  ? H
   C688       1.0     0.615766     0.536891     0.804882    Uiso  ? C
   C689       1.0     0.618529     0.576103     0.118610    Uiso  ? C
   C690       1.0     0.630623     0.562138     0.130782    Uiso  ? C
   C691       1.0     0.651278     0.562118     0.131155    Uiso  ? C
   H417       1.0     0.659913     0.573964     0.124231    Uiso  ? H
   C692       1.0     0.662976     0.550632     0.144619    Uiso  ? C
   H418       1.0     0.679520     0.551142     0.144875    Uiso  ? H
   C693       1.0     0.652292     0.538476     0.158738    Uiso  ? C
   H419       1.0     0.661115     0.526932     0.165894    Uiso  ? H
   C694       1.0     0.631050     0.539399     0.160565    Uiso  ? C
   C695       1.0     0.620090     0.550269     0.145528    Uiso  ? C
   H420       1.0     0.603508     0.549554     0.145325    Uiso  ? H
   C696       1.0     0.620169     0.526667     0.175433    Uiso  ? C
   C697       1.0     0.584550     0.614111     0.123910    Uiso  ? C
   C698       1.0     0.575355     0.624834     0.141394    Uiso  ? C
   C699       1.0     0.581462     0.644743     0.146192    Uiso  ? C
   H421       1.0     0.595198     0.651966     0.139578    Uiso  ? H
   C700       1.0     0.571411     0.654310     0.161924    Uiso  ? C
   H422       1.0     0.577376     0.667795     0.168137    Uiso  ? H
   C701       1.0     0.554003     0.647419     0.171058    Uiso  ? C
   H423       1.0     0.547770     0.655476     0.182741    Uiso  ? H
   C702       1.0     0.547275     0.628751     0.164641    Uiso  ? C
   C703       1.0     0.558491     0.617332     0.151190    Uiso  ? C
   H424       1.0     0.554152     0.602694     0.147982    Uiso  ? H
   C704       1.0     0.529799     0.619709     0.175301    Uiso  ? C
   C705       1.0     0.467593     0.581533     0.780623    Uiso  ? C
   C706       1.0     0.452439     0.568928     0.769054    Uiso  ? C
   C707       1.0     0.448640     0.574519     0.749255    Uiso  ? C
   H425       1.0     0.455554     0.587611     0.743241    Uiso  ? H
   C708       1.0     0.435473     0.562030     0.739360    Uiso  ? C
   H426       1.0     0.432088     0.565192     0.723855    Uiso  ? H
   C709       1.0     0.426306     0.546069     0.748700    Uiso  ? C
   H427       1.0     0.415887     0.537197     0.740006    Uiso  ? H
   C710       1.0     0.430849     0.540655     0.769401    Uiso  ? C
   C711       1.0     0.445571     0.551100     0.778396    Uiso  ? C
   H428       1.0     0.450553     0.547488     0.792998    Uiso  ? H
   C712       1.0     0.421263     0.524531     0.779420    Uiso  ? C
   C713       1.0     0.513973     0.578128     0.776268    Uiso  ? C
   C714       1.0     0.524370     0.561836     0.765269    Uiso  ? C
   C715       1.0     0.524215     0.561794     0.743654    Uiso  ? C
   H429       1.0     0.517041     0.573985     0.736163    Uiso  ? H
   C716       1.0     0.535045     0.547705     0.733662    Uiso  ? C
   H430       1.0     0.538905     0.549642     0.718747    Uiso  ? H
   C717       1.0     0.547765     0.535026     0.743960    Uiso  ? C
   H431       1.0     0.557401     0.525116     0.735616    Uiso  ? H
   C718       1.0     0.549670     0.535549     0.763808    Uiso  ? C
   C719       1.0     0.535878     0.546658     0.774933    Uiso  ? C
   H432       1.0     0.538898     0.546133     0.790696    Uiso  ? H
   C720       1.0     0.565177     0.524115     0.774574    Uiso  ? C
   C721       1.0     0.458875     0.614669     0.814014    Uiso  ? C
   C722       1.0     0.439958     0.621713     0.824812    Uiso  ? C
   C723       1.0     0.428918     0.638025     0.817988    Uiso  ? C
   H433       1.0     0.432837     0.645193     0.804344    Uiso  ? H
   C724       1.0     0.411996     0.644218     0.828470    Uiso  ? C
   H434       1.0     0.402523     0.654885     0.820901    Uiso  ? H
   C725       1.0     0.408405     0.637305     0.847452    Uiso  ? C
   H435       1.0     0.396722     0.643648     0.855458    Uiso  ? H
   C726       1.0     0.417835     0.619488     0.853983    Uiso  ? C
   C727       1.0     0.433523     0.611168     0.841933    Uiso  ? C
   H436       1.0     0.442343     0.599491     0.849083    Uiso  ? H
   C728       1.0     0.411943     0.608767     0.872796    Uiso  ? C
   C729       1.0     0.575239     0.478437     0.777054    Uiso  ? C
   C730       1.0     0.562538     0.462148     0.768651    Uiso  ? C
   C731       1.0     0.559826     0.462416     0.747943    Uiso  ? C
   H437       1.0     0.567274     0.474751     0.741063    Uiso  ? H
   C732       1.0     0.546738     0.447987     0.738616    Uiso  ? C
   H438       1.0     0.547169     0.446736     0.722995    Uiso  ? H
   C733       1.0     0.535470     0.434549     0.749938    Uiso  ? C
   H439       1.0     0.525272     0.423986     0.741768    Uiso  ? H
   C734       1.0     0.536421     0.436204     0.770957    Uiso  ? C
   C735       1.0     0.550989     0.449274     0.780541    Uiso  ? C
   H440       1.0     0.551932     0.448860     0.796729    Uiso  ? H
   C736       1.0     0.523912     0.423087     0.783916    Uiso  ? C
   C737       1.0     0.615487     0.476558     0.809262    Uiso  ? C
   C738       1.0     0.627382     0.461721     0.820855    Uiso  ? C
   C739       1.0     0.647278     0.456577     0.814308    Uiso  ? C
   H441       1.0     0.653606     0.465555     0.803940    Uiso  ? H
   C740       1.0     0.657487     0.441125     0.823624    Uiso  ? C
   H442       1.0     0.671253     0.435493     0.818004    Uiso  ? H
   C741       1.0     0.648119     0.430535     0.839234    Uiso  ? C
   H443       1.0     0.655984     0.418612     0.846483    Uiso  ? H
   C742       1.0     0.628630     0.434756     0.845727    Uiso  ? C
   C743       1.0     0.619009     0.451345     0.837156    Uiso  ? C
   H444       1.0     0.604845     0.455590     0.843149    Uiso  ? H
   C744       1.0     0.618644     0.423662     0.861616    Uiso  ? C
   C745       1.0     0.378713     0.574545     0.868078    Uiso  ? C
   C746       1.0     0.370599     0.563642     0.850446    Uiso  ? C
   C747       1.0     0.350972     0.566241     0.844880    Uiso  ? C
   H445       1.0     0.340513     0.573687     0.854327    Uiso  ? H
   C748       1.0     0.342877     0.557213     0.828051    Uiso  ? C
   H446       1.0     0.327782     0.562040     0.824198    Uiso  ? H
   C749       1.0     0.355517     0.545374     0.816368    Uiso  ? C
   H447       1.0     0.349066     0.538662     0.802250    Uiso  ? H
   C750       1.0     0.374951     0.538718     0.824134    Uiso  ? C
   C751       1.0     0.382861     0.549588     0.839822    Uiso  ? C
   H448       1.0     0.398178     0.547435     0.844556    Uiso  ? H
   C752       1.0     0.385743     0.522617     0.814114    Uiso  ? C
   C753       1.0     0.421073     0.613901     0.120056    Uiso  ? C
   C754       1.0     0.435791     0.625517     0.132231    Uiso  ? C
   C755       1.0     0.440577     0.646110     0.126377    Uiso  ? C
   H449       1.0     0.432967     0.653227     0.114262    Uiso  ? H
   C756       1.0     0.455114     0.657285     0.136439    Uiso  ? C
   H450       1.0     0.459555     0.672063     0.132752    Uiso  ? H
   C757       1.0     0.466021     0.649042     0.152578    Uiso  ? C
   H451       1.0     0.476817     0.657897     0.160132    Uiso  ? H
   C758       1.0     0.461827     0.629162     0.158318    Uiso  ? C
   C759       1.0     0.446704     0.617802     0.148251    Uiso  ? C
   H452       1.0     0.445234     0.601411     0.151231    Uiso  ? H
   C760       1.0     0.474121     0.619798     0.174430    Uiso  ? C
   C761       1.0     0.529300     0.585990     0.213526    Uiso  ? C
   C762       1.0     0.547382     0.576854     0.221951    Uiso  ? C
   C763       1.0     0.556160     0.585351     0.239022    Uiso  ? C
   H453       1.0     0.551632     0.597672     0.245561    Uiso  ? H
   C764       1.0     0.573641     0.576903     0.246759    Uiso  ? C
   H454       1.0     0.581399     0.583429     0.259705    Uiso  ? H
   C765       1.0     0.582149     0.559832     0.239048    Uiso  ? C
   H455       1.0     0.592749     0.551787     0.247077    Uiso  ? H
   C766       1.0     0.575180     0.551918     0.219629    Uiso  ? C
   C767       1.0     0.557380     0.560958     0.212072    Uiso  ? C
   H456       1.0     0.551246     0.557188     0.197985    Uiso  ? H
   C768       1.0     0.585765     0.534914     0.210730    Uiso  ? C
   O379       1.0     0.570244     0.605327     0.879229    Uiso  ? O
   O380       1.0     0.598078     0.621400     0.871319    Uiso  ? O
   O381       1.0     0.609403     0.573541     0.873170    Uiso  ? O
   O382       1.0     0.616996     0.604572     0.865269    Uiso  ? O
   O383       1.0     0.599556     0.575327     0.119651    Uiso  ? O
   O384       1.0     0.626967     0.586459     0.105735    Uiso  ? O
   O385       1.0     0.584678     0.595019     0.121831    Uiso  ? O
   O386       1.0     0.594762     0.624940     0.112238    Uiso  ? O
   O387       1.0     0.466940     0.580029     0.799094    Uiso  ? O
   O388       1.0     0.479801     0.593574     0.772287    Uiso  ? O
   O389       1.0     0.512042     0.575576     0.795105    Uiso  ? O
   O390       1.0     0.504306     0.592508     0.769049    Uiso  ? O
   O391       1.0     0.510749     0.614617     0.828033    Uiso  ? O
   O392       1.0     0.520547     0.623841     0.798843    Uiso  ? O
   O393       1.0     0.465148     0.596483     0.816022    Uiso  ? O
   O394       1.0     0.468792     0.626516     0.803548    Uiso  ? O
   O395       1.0     0.576930     0.478419     0.796369    Uiso  ? O
   O396       1.0     0.584117     0.491354     0.766048    Uiso  ? O
   O397       1.0     0.596267     0.478319     0.811717    Uiso  ? O
   O398       1.0     0.623906     0.489317     0.797155    Uiso  ? O
   O399       1.0     0.605482     0.525529     0.816064    Uiso  ? O
   O400       1.0     0.615099     0.534013     0.786184    Uiso  ? O
   O401       1.0     0.561839     0.520138     0.792352    Uiso  ? O
   O402       1.0     0.581584     0.520095     0.766288    Uiso  ? O
   O403       1.0     0.396027     0.571106     0.873748    Uiso  ? O
   O404       1.0     0.368326     0.586882     0.878819    Uiso  ? O
   O405       1.0     0.412690     0.589727     0.873983    Uiso  ? O
   O406       1.0     0.401822     0.619853     0.884943    Uiso  ? O
   O407       1.0     0.422881     0.594946     0.119964    Uiso  ? O
   O408       1.0     0.406766     0.621759     0.110976    Uiso  ? O
   O409       1.0     0.387431     0.568561     0.124236    Uiso  ? O
   O410       1.0     0.373981     0.599118     0.129668    Uiso  ? O
   O411       1.0     0.474376     0.601249     0.176612    Uiso  ? O
   O412       1.0     0.486970     0.630372     0.184246    Uiso  ? O
   O413       1.0     0.517993     0.608582     0.166002    Uiso  ? O
   O414       1.0     0.528377     0.622154     0.194096    Uiso  ? O
   O415       1.0     0.517587     0.576231     0.201775    Uiso  ? O
   O416       1.0     0.527488     0.604306     0.215756    Uiso  ? O
   O417       1.0     0.472147     0.585606     0.192498    Uiso  ? O
   O418       1.0     0.484659     0.595238     0.221820    Uiso  ? O
   O419       1.0     0.395692     0.476952     0.821580    Uiso  ? O
   O420       1.0     0.385627     0.464437     0.793717    Uiso  ? O
   O421       1.0     0.432099     0.477265     0.787384    Uiso  ? O
   O422       1.0     0.404066     0.464469     0.777462    Uiso  ? O
   O423       1.0     0.421998     0.522887     0.799053    Uiso  ? O
   O424       1.0     0.410363     0.512470     0.768717    Uiso  ? O
   O425       1.0     0.404583     0.521048     0.816150    Uiso  ? O
   O426       1.0     0.377517     0.511882     0.801014    Uiso  ? O
   O427       1.0     0.564247     0.558907     0.887998    Uiso  ? O
   O428       1.0     0.500556     0.576048     0.843618    Uiso  ? O
   O429       1.0     0.568080     0.506045     0.840491    Uiso  ? O
   O430       1.0     0.428724     0.549143     0.897534    Uiso  ? O
   O431       1.0     0.504567     0.563545     0.159326    Uiso  ? O
   O432       1.0     0.438479     0.491539     0.834487    Uiso  ? O
   Zn85       1.0     0.584912     0.581498     0.892383    Uiso  ? Zn
   Zn86       1.0     0.615832     0.612381     0.895673    Uiso  ? Zn
   Zn87       1.0     0.494710     0.589338     0.816893    Uiso  ? Zn
   Zn88       1.0     0.493813     0.619190     0.783272    Uiso  ? Zn
   Zn89       1.0     0.581071     0.505880     0.811905    Uiso  ? Zn
   Zn90       1.0     0.609275     0.506626     0.776298    Uiso  ? Zn
   Zn91       1.0     0.408081     0.573905     0.102215    Uiso  ? Zn
   Zn92       1.0     0.376890     0.608992     0.100359    Uiso  ? Zn
   Zn93       1.0     0.500123     0.586220     0.179425    Uiso  ? Zn
   Zn94       1.0     0.500848     0.620866     0.209199    Uiso  ? Zn
   Zn95       1.0     0.419250     0.493788     0.810125    Uiso  ? Zn
   Zn96       1.0     0.387006     0.492104     0.779056    Uiso  ? Zn
   H457       1.0     0.513792     0.570632     0.844629    Uiso  ? H
   H458       1.0     0.489322     0.577120     0.853479    Uiso  ? H
   H459       1.0     0.513064     0.449621     0.155153    Uiso  ? H
   H460       1.0     0.491141     0.443206     0.152712    Uiso  ? H
   H461       1.0     0.556544     0.481839     0.166408    Uiso  ? H
   H462       1.0     0.547840     0.506156     0.166224    Uiso  ? H
   H463       1.0     0.549898     0.432573     0.895850    Uiso  ? H
   H464       1.0     0.550608     0.425979     0.872121    Uiso  ? H
   H465       1.0     0.442569     0.503189     0.841811    Uiso  ? H
   H466       1.0     0.438409     0.480172     0.843415    Uiso  ? H
   H467       1.0     0.434127     0.454430     0.888936    Uiso  ? H
   H468       1.0     0.439484     0.454973     0.112178    Uiso  ? H
   H469       1.0     0.508472     0.412768     0.858406    Uiso  ? H
   H470       1.0     0.509258     0.435573     0.850175    Uiso  ? H
   H471       1.0     0.434043     0.543951     0.109022    Uiso  ? H
   H472       1.0     0.435865     0.547487     0.884390    Uiso  ? H
   H473       1.0     0.427302     0.499393     0.145775    Uiso  ? H
   H474       1.0     0.440192     0.513979     0.160543    Uiso  ? H
   H475       1.0     0.498307     0.566087     0.146467    Uiso  ? H
   H476       1.0     0.511464     0.552157     0.163297    Uiso  ? H
   H477       1.0     0.572047     0.517844     0.847998    Uiso  ? H
   H478       1.0     0.561257     0.494096     0.846483    Uiso  ? H
   H479       1.0     0.550274     0.561092     0.891996    Uiso  ? H
   H480       1.0     0.566038     0.547642     0.879336    Uiso  ? H
   C769       1.0     0.495662     0.278646     0.348821    Uiso  ? C
   H481       1.0     0.491239     0.293198     0.347172    Uiso  ? H
   C770       1.0     0.495447     0.247991     0.341738    Uiso  ? C
   N1         1.0     0.493240     0.266236     0.333802    Uiso  ? N
   C771       1.0     0.483886     0.269902     0.314123    Uiso  ? C
   H482       1.0     0.488372     0.258064     0.302368    Uiso  ? H
   H483       1.0     0.467083     0.270146     0.316634    Uiso  ? H
   C772       1.0     0.489873     0.290934     0.306011    Uiso  ? C
   C773       1.0     0.507728     0.291862     0.294585    Uiso  ? C
   C774       1.0     0.480117     0.308814     0.312341    Uiso  ? C
   C775       1.0     0.514497     0.311140     0.288854    Uiso  ? C
   H484       1.0     0.515854     0.278376     0.292481    Uiso  ? H
   C776       1.0     0.485765     0.326931     0.305586    Uiso  ? C
   H485       1.0     0.467629     0.306296     0.321990    Uiso  ? H
   C777       1.0     0.502789     0.328519     0.292797    Uiso  ? C
   H486       1.0     0.527181     0.311859     0.279152    Uiso  ? H
   H487       1.0     0.478159     0.339908     0.309572    Uiso  ? H
   C778       1.0     0.506077     0.349492     0.284457    Uiso  ? C
   H488       1.0     0.496634     0.359512     0.293666    Uiso  ? H
   H489       1.0     0.522087     0.351983     0.284976    Uiso  ? H
   N2         1.0     0.500301     0.351214     0.263073    Uiso  ? N
   C779       1.0     0.505408     0.367184     0.252931    Uiso  ? C
   N3         1.0     0.495929     0.367464     0.235289    Uiso  ? N
   C780       1.0     0.483781     0.351469     0.235539    Uiso  ? C
   H490       1.0     0.473152     0.349155     0.222927    Uiso  ? H
   C781       1.0     0.485810     0.341857     0.252875    Uiso  ? C
   H491       1.0     0.478070     0.328864     0.258114    Uiso  ? H
   N4         1.0     0.502093     0.248835     0.361094    Uiso  ? N
   C782       1.0     0.501906     0.269068     0.365691    Uiso  ? C
   H492       1.0     0.504070     0.276312     0.380829    Uiso  ? H
   H493       1.0     0.492234     0.233583     0.334803    Uiso  ? H
   H494       1.0     0.517585     0.377280     0.256251    Uiso  ? H
   C783       1.0     0.486654     0.736002     0.346654    Uiso  ? C
   H495       1.0     0.476677     0.725214     0.340752    Uiso  ? H
   C784       1.0     0.506547     0.761043     0.347173    Uiso  ? C
   N5         1.0     0.501000     0.745555     0.335739    Uiso  ? N
   C785       1.0     0.506778     0.743083     0.314236    Uiso  ? C
   H496       1.0     0.498635     0.755057     0.305343    Uiso  ? H
   H497       1.0     0.522484     0.746884     0.313586    Uiso  ? H
   C786       1.0     0.502874     0.722544     0.306083    Uiso  ? C
   C787       1.0     0.488075     0.719441     0.291698    Uiso  ? C
   C788       1.0     0.514430     0.705489     0.311803    Uiso  ? C
   C789       1.0     0.484626     0.700743     0.283771    Uiso  ? C
   H498       1.0     0.478001     0.732216     0.287084    Uiso  ? H
   C790       1.0     0.511077     0.686707     0.304261    Uiso  ? C
   H499       1.0     0.527230     0.707331     0.320540    Uiso  ? H
   C791       1.0     0.496556     0.684479     0.288620    Uiso  ? C
   H500       1.0     0.471607     0.699294     0.272500    Uiso  ? H
   H501       1.0     0.521435     0.674280     0.308919    Uiso  ? H
   C792       1.0     0.491223     0.663717     0.280428    Uiso  ? C
   H502       1.0     0.503119     0.652198     0.287945    Uiso  ? H
   H503       1.0     0.475796     0.659729     0.286033    Uiso  ? H
   N6         1.0     0.492271     0.659599     0.258348    Uiso  ? N
   C793       1.0     0.486569     0.642807     0.247356    Uiso  ? C
   N7         1.0     0.496480     0.641958     0.230316    Uiso  ? N
   C794       1.0     0.506201     0.658594     0.228524    Uiso  ? C
   H504       1.0     0.516919     0.659825     0.216647    Uiso  ? H
   C795       1.0     0.505229     0.668948     0.246441    Uiso  ? C
   H505       1.0     0.513439     0.682848     0.250666    Uiso  ? H
   N8         1.0     0.496473     0.760814     0.364372    Uiso  ? N
   C796       1.0     0.484692     0.744174     0.364703    Uiso  ? C
   H506       1.0     0.471477     0.744195     0.374012    Uiso  ? H
   H507       1.0     0.514840     0.773467     0.341388    Uiso  ? H
   H508       1.0     0.477247     0.630738     0.253120    Uiso  ? H
   C797       1.0     0.494293     0.653123     0.729687    Uiso  ? C
   H509       1.0     0.497612     0.654826     0.714236    Uiso  ? H
   C798       1.0     0.489266     0.659320     0.761038    Uiso  ? C
   N9         1.0     0.489442     0.667946     0.742587    Uiso  ? N
   C799       1.0     0.481487     0.688080     0.737518    Uiso  ? C
   H510       1.0     0.465579     0.689436     0.743780    Uiso  ? H
   H511       1.0     0.491245     0.698784     0.745988    Uiso  ? H
   C800       1.0     0.481076     0.692864     0.716048    Uiso  ? C
   C801       1.0     0.464506     0.689937     0.703494    Uiso  ? C
   C802       1.0     0.497879     0.702479     0.708829    Uiso  ? C
   C803       1.0     0.465917     0.695442     0.682625    Uiso  ? C
   H512       1.0     0.450542     0.683042     0.707192    Uiso  ? H
   C804       1.0     0.498595     0.709218     0.689211    Uiso  ? C
   H513       1.0     0.510507     0.704630     0.718862    Uiso  ? H
   C805       1.0     0.483320     0.704551     0.675335    Uiso  ? C
   H514       1.0     0.451143     0.695575     0.673863    Uiso  ? H
   H515       1.0     0.512122     0.715266     0.683415    Uiso  ? H
   C806       1.0     0.484738     0.712825     0.655062    Uiso  ? C
   H516       1.0     0.498990     0.707548     0.648255    Uiso  ? H
   H517       1.0     0.472852     0.705158     0.645377    Uiso  ? H
   N10        1.0     0.484440     0.734783     0.653785    Uiso  ? N
   C807       1.0     0.490446     0.743568     0.637528    Uiso  ? C
   N11        1.0     0.488880     0.762940     0.638655    Uiso  ? N
   C808       1.0     0.481626     0.767079     0.657149    Uiso  ? C
   H518       1.0     0.478334     0.781834     0.663209    Uiso  ? H
   C809       1.0     0.476462     0.749523     0.664739    Uiso  ? C
   H519       1.0     0.470009     0.747786     0.678839    Uiso  ? H
   N12        1.0     0.494901     0.639272     0.760447    Uiso  ? N
   C810       1.0     0.498240     0.636315     0.740578    Uiso  ? C
   H520       1.0     0.504280     0.622078     0.734313    Uiso  ? H
   H521       1.0     0.482662     0.667148     0.772588    Uiso  ? H
   H522       1.0     0.495963     0.736108     0.624530    Uiso  ? H
   C811       1.0     0.510085     0.262094     0.662945    Uiso  ? C
   H523       1.0     0.518734     0.274613     0.669126    Uiso  ? H
   C812       1.0     0.491551     0.236677     0.659523    Uiso  ? C
   N13        1.0     0.495443     0.252185     0.671789    Uiso  ? N
   C813       1.0     0.485759     0.256598     0.690662    Uiso  ? C
   H524       1.0     0.470751     0.262945     0.686825    Uiso  ? H
   H525       1.0     0.485823     0.243491     0.699600    Uiso  ? H
   C814       1.0     0.496752     0.272916     0.703178    Uiso  ? C
   C815       1.0     0.493087     0.292497     0.698207    Uiso  ? C
   C816       1.0     0.508716     0.268548     0.719503    Uiso  ? C
   C817       1.0     0.502928     0.308331     0.708153    Uiso  ? C
   H526       1.0     0.483603     0.296178     0.685242    Uiso  ? H
   C818       1.0     0.518980     0.283998     0.729310    Uiso  ? C
   H527       1.0     0.510063     0.254180     0.724793    Uiso  ? H
   C819       1.0     0.516269     0.303726     0.723342    Uiso  ? C
   H528       1.0     0.501650     0.323015     0.702552    Uiso  ? H
   H529       1.0     0.527543     0.281090     0.742001    Uiso  ? H
   C820       1.0     0.527448     0.320947     0.734819    Uiso  ? C
   H530       1.0     0.539448     0.315931     0.743875    Uiso  ? H
   H531       1.0     0.534732     0.331084     0.722305    Uiso  ? H
   N14        1.0     0.512897     0.331570     0.747157    Uiso  ? N
   C821       1.0     0.518414     0.347386     0.757772    Uiso  ? C
   N15        1.0     0.502354     0.354101     0.769008    Uiso  ? N
   C822       1.0     0.488185     0.339974     0.768152    Uiso  ? C
   H532       1.0     0.474840     0.338290     0.776824    Uiso  ? H
   C823       1.0     0.494655     0.326946     0.752497    Uiso  ? C
   H533       1.0     0.486356     0.314783     0.746382    Uiso  ? H
   N16        1.0     0.501900     0.237933     0.642172    Uiso  ? N
   C824       1.0     0.512234     0.255053     0.643140    Uiso  ? C
   H534       1.0     0.523508     0.260439     0.632395    Uiso  ? H
   H535       1.0     0.484475     0.222332     0.663983    Uiso  ? H
   H536       1.0     0.533913     0.352811     0.759299    Uiso  ? H
   C825       1.0     0.735772     0.350407     0.498950    Uiso  ? C
   H537       1.0     0.720111     0.350176     0.499773    Uiso  ? H
   C826       1.0     0.767264     0.342734     0.500766    Uiso  ? C
   N17        1.0     0.748209     0.335818     0.501624    Uiso  ? N
   C827       1.0     0.743147     0.314731     0.503490    Uiso  ? C
   H538       1.0     0.751018     0.306507     0.490977    Uiso  ? H
   H539       1.0     0.747890     0.311178     0.518961    Uiso  ? H
   C828       1.0     0.720832     0.309991     0.501932    Uiso  ? C
   C829       1.0     0.708693     0.304141     0.519000    Uiso  ? C
   C830       1.0     0.710253     0.311722     0.482967    Uiso  ? C
   C831       1.0     0.688344     0.299541     0.516736    Uiso  ? C
   H540       1.0     0.716683     0.301971     0.532609    Uiso  ? H
   C832       1.0     0.690691     0.303983     0.481216    Uiso  ? C
   H541       1.0     0.718080     0.318095     0.470673    Uiso  ? H
   C833       1.0     0.679843     0.296857     0.497760    Uiso  ? C
   H542       1.0     0.679356     0.294832     0.529780    Uiso  ? H
   H543       1.0     0.683838     0.304223     0.466389    Uiso  ? H
   C834       1.0     0.658407     0.289378     0.496159    Uiso  ? C
   H544       1.0     0.648317     0.295470     0.509960    Uiso  ? H
   H545       1.0     0.651305     0.295066     0.483083    Uiso  ? H
   N18        1.0     0.657104     0.268056     0.495938    Uiso  ? N
   C835       1.0     0.640691     0.257513     0.501136    Uiso  ? C
   N19        1.0     0.641599     0.237502     0.495935    Uiso  ? N
   C836       1.0     0.658574     0.236879     0.485002    Uiso  ? C
   H546       1.0     0.663684     0.223832     0.477817    Uiso  ? H
   C837       1.0     0.668125     0.254961     0.484618    Uiso  ? C
   H547       1.0     0.680762     0.258176     0.476138    Uiso  ? H
   N20        1.0     0.767190     0.362400     0.498315    Uiso  ? N
   C838       1.0     0.747529     0.367823     0.496684    Uiso  ? C
   H548       1.0     0.742656     0.383305     0.494893    Uiso  ? H
   H549       1.0     0.780442     0.333774     0.498726    Uiso  ? H
   H550       1.0     0.628182     0.264812     0.510019    Uiso  ? H
   C839       1.0     0.665951     0.747473     0.502740    Uiso  ? C
   H551       1.0     0.682587     0.748110     0.502399    Uiso  ? H
   C840       1.0     0.634991     0.739491     0.499397    Uiso  ? C
   N21        1.0     0.653405     0.730919     0.501078    Uiso  ? N
   C841       1.0     0.657563     0.710089     0.503795    Uiso  ? C
   H552       1.0     0.653840     0.706059     0.519064    Uiso  ? H
   H553       1.0     0.647695     0.702370     0.493399    Uiso  ? H
   C842       1.0     0.678692     0.704249     0.499951    Uiso  ? C
   C843       1.0     0.692387     0.706584     0.515902    Uiso  ? C
   C844       1.0     0.685050     0.694810     0.482057    Uiso  ? C
   C845       1.0     0.711957     0.699968     0.513175    Uiso  ? C
   H554       1.0     0.688885     0.712233     0.531246    Uiso  ? H
   C846       1.0     0.704025     0.686695     0.480700    Uiso  ? C
   H555       1.0     0.674829     0.690745     0.471034    Uiso  ? H
   C847       1.0     0.718096     0.691011     0.495646    Uiso  ? C
   H556       1.0     0.723239     0.704515     0.523579    Uiso  ? H
   H557       1.0     0.709138     0.678925     0.467735    Uiso  ? H
   C848       1.0     0.739634     0.685968     0.492160    Uiso  ? C
   H558       1.0     0.742021     0.685974     0.475847    Uiso  ? H
   H559       1.0     0.749483     0.696744     0.500091    Uiso  ? H
   N22        1.0     0.744283     0.665049     0.499790    Uiso  ? N
   C849       1.0     0.758716     0.653370     0.492899    Uiso  ? C
   N23        1.0     0.761139     0.636015     0.504293    Uiso  ? N
   C850       1.0     0.747899     0.638301     0.519526    Uiso  ? C
   H560       1.0     0.744368     0.628575     0.532352    Uiso  ? H
   C851       1.0     0.738736     0.656712     0.517798    Uiso  ? C
   H561       1.0     0.726417     0.662107     0.526738    Uiso  ? H
   N24        1.0     0.635613     0.759379     0.499418    Uiso  ? N
   C852       1.0     0.655172     0.764403     0.501803    Uiso  ? C
   H562       1.0     0.659755     0.779569     0.501285    Uiso  ? H
   H563       1.0     0.621947     0.731892     0.497666    Uiso  ? H
   H564       1.0     0.766969     0.655057     0.478889    Uiso  ? H
   C853       1.0     0.251153     0.330197     0.512303    Uiso  ? C
   H565       1.0     0.252633     0.314952     0.518683    Uiso  ? H
   C854       1.0     0.259059     0.360851     0.504868    Uiso  ? C
   N25        1.0     0.266596     0.343053     0.509865    Uiso  ? N
   C855       1.0     0.287636     0.339667     0.516289    Uiso  ? C
   H566       1.0     0.298331     0.348964     0.507086    Uiso  ? H
   H567       1.0     0.288991     0.342935     0.532773    Uiso  ? H
   C856       1.0     0.295999     0.318797     0.512688    Uiso  ? C
   C857       1.0     0.299053     0.311947     0.492996    Uiso  ? C
   C858       1.0     0.299560     0.306045     0.528727    Uiso  ? C
   C859       1.0     0.306212     0.292272     0.489716    Uiso  ? C
   H568       1.0     0.296843     0.322285     0.481200    Uiso  ? H
   C860       1.0     0.305897     0.286969     0.525610    Uiso  ? C
   H569       1.0     0.299284     0.312102     0.543911    Uiso  ? H
   C861       1.0     0.308900     0.279492     0.506455    Uiso  ? C
   H570       1.0     0.308708     0.286303     0.474639    Uiso  ? H
   H571       1.0     0.307438     0.277156     0.538415    Uiso  ? H
   C862       1.0     0.318011     0.259081     0.504922    Uiso  ? C
   H572       1.0     0.310177     0.247038     0.514174    Uiso  ? H
   H573       1.0     0.314978     0.252461     0.490068    Uiso  ? H
   N26        1.0     0.339182     0.257503     0.507181    Uiso  ? N
   C863       1.0     0.351879     0.242830     0.499165    Uiso  ? C
   N27        1.0     0.370978     0.245780     0.505026    Uiso  ? N
   C864       1.0     0.370677     0.262160     0.516041    Uiso  ? C
   H574       1.0     0.383814     0.268788     0.521931    Uiso  ? H
   C865       1.0     0.351979     0.270699     0.517462    Uiso  ? C
   H575       1.0     0.348193     0.284209     0.524851    Uiso  ? H
   N28        1.0     0.239291     0.360471     0.505682    Uiso  ? N
   C866       1.0     0.234083     0.341283     0.509459    Uiso  ? C
   H576       1.0     0.219791     0.336832     0.513903    Uiso  ? H
   H577       1.0     0.267351     0.374049     0.502922    Uiso  ? H
   H578       1.0     0.347068     0.228169     0.492280    Uiso  ? H
   C867       1.0     0.263890     0.656952     0.518334    Uiso  ? C
   H579       1.0     0.278097     0.660140     0.526139    Uiso  ? H
   C868       1.0     0.240057     0.658209     0.497138    Uiso  ? C
   N29        1.0     0.256548     0.667397     0.502687    Uiso  ? N
   C869       1.0     0.261263     0.689326     0.498054    Uiso  ? C
   H580       1.0     0.254656     0.693125     0.483156    Uiso  ? H
   H581       1.0     0.253141     0.698646     0.509154    Uiso  ? H
   C870       1.0     0.282676     0.695342     0.499925    Uiso  ? C
   C871       1.0     0.293209     0.698465     0.481758    Uiso  ? C
   C872       1.0     0.291900     0.698210     0.518270    Uiso  ? C
   C873       1.0     0.312812     0.705723     0.483047    Uiso  ? C
   H582       1.0     0.286750     0.697485     0.466569    Uiso  ? H
   C874       1.0     0.310963     0.705564     0.519363    Uiso  ? C
   H583       1.0     0.283232     0.696639     0.531605    Uiso  ? H
   C875       1.0     0.321685     0.709892     0.501375    Uiso  ? C
   H584       1.0     0.319723     0.708401     0.469038    Uiso  ? H
   H585       1.0     0.317813     0.707305     0.533126    Uiso  ? H
   C876       1.0     0.343305     0.716179     0.502208    Uiso  ? C
   H586       1.0     0.351466     0.711255     0.515372    Uiso  ? H
   H587       1.0     0.351734     0.711111     0.489377    Uiso  ? H
   N30        1.0     0.344536     0.737579     0.502468    Uiso  ? N
   C877       1.0     0.355019     0.751211     0.490828    Uiso  ? C
   N31        1.0     0.358587     0.768596     0.501275    Uiso  ? N
   C878       1.0     0.346532     0.766783     0.516945    Uiso  ? C
   H588       1.0     0.347326     0.778916     0.528231    Uiso  ? H
   C879       1.0     0.337624     0.748285     0.517874    Uiso  ? C
   H589       1.0     0.328185     0.743483     0.530128    Uiso  ? H
   N32        1.0     0.237455     0.640994     0.506916    Uiso  ? N
   C880       1.0     0.252218     0.640489     0.520113    Uiso  ? C
   H590       1.0     0.255761     0.628338     0.530682    Uiso  ? H
   H591       1.0     0.229657     0.662530     0.484631    Uiso  ? H
   H592       1.0     0.362656     0.748287     0.477396    Uiso  ? H
   C881       1.0     0.649152     0.505733     0.266909    Uiso  ? C
   H593       1.0     0.647993     0.508433     0.282759    Uiso  ? H
   C882       1.0     0.654751     0.487465     0.239794    Uiso  ? C
   N33        1.0     0.661337     0.491640     0.258650    Uiso  ? N
   C883       1.0     0.675507     0.479552     0.269509    Uiso  ? C
   H594       1.0     0.668359     0.465293     0.271968    Uiso  ? H
   H595       1.0     0.687545     0.476708     0.259531    Uiso  ? H
   C884       1.0     0.684466     0.488268     0.287512    Uiso  ? C
   C885       1.0     0.683772     0.477481     0.305096    Uiso  ? C
   C886       1.0     0.695706     0.506115     0.287724    Uiso  ? C
   C887       1.0     0.693679     0.483550     0.322462    Uiso  ? C
   H596       1.0     0.676503     0.462846     0.305892    Uiso  ? H
   C888       1.0     0.707585     0.512207     0.303907    Uiso  ? C
   H597       1.0     0.697969     0.513843     0.274807    Uiso  ? H
   C889       1.0     0.706275     0.500729     0.320948    Uiso  ? C
   H598       1.0     0.693779     0.473887     0.335666    Uiso  ? H
   H599       1.0     0.715742     0.526367     0.302877    Uiso  ? H
   C890       1.0     0.715795     0.509344     0.340043    Uiso  ? C
   H600       1.0     0.717273     0.526646     0.339718    Uiso  ? H
   H601       1.0     0.704690     0.504631     0.352394    Uiso  ? H
   N34        1.0     0.735226     0.500987     0.344191    Uiso  ? N
   C891       1.0     0.746732     0.506058     0.359530    Uiso  ? C
   N35        1.0     0.765208     0.498125     0.358793    Uiso  ? N
   C892       1.0     0.765660     0.487896     0.341581    Uiso  ? C
   H602       1.0     0.776940     0.476941     0.336646    Uiso  ? H
   C893       1.0     0.746978     0.489077     0.332988    Uiso  ? C
   H603       1.0     0.743032     0.482892     0.318223    Uiso  ? H
   N36        1.0     0.638798     0.499078     0.236445    Uiso  ? N
   C894       1.0     0.635141     0.510273     0.252726    Uiso  ? C
   H604       1.0     0.622267     0.520059     0.255430    Uiso  ? H
   H605       1.0     0.662623     0.478373     0.229129    Uiso  ? H
   H606       1.0     0.741836     0.512856     0.373779    Uiso  ? H
   C895       1.0     0.336413     0.487342     0.257556    Uiso  ? C
   H607       1.0     0.322666     0.478908     0.259783    Uiso  ? H
   C896       1.0     0.359100     0.509064     0.254597    Uiso  ? C
   N37        1.0     0.343524     0.503711     0.266806    Uiso  ? N
   C897       1.0     0.341132     0.509896     0.287945    Uiso  ? C
   H608       1.0     0.353750     0.502983     0.296930    Uiso  ? H
   H609       1.0     0.341544     0.526057     0.287978    Uiso  ? H
   C898       1.0     0.321111     0.503052     0.296459    Uiso  ? C
   C899       1.0     0.320349     0.486605     0.309022    Uiso  ? C
   C900       1.0     0.304269     0.516199     0.294706    Uiso  ? C
   C901       1.0     0.302672     0.480481     0.318329    Uiso  ? C
   H610       1.0     0.333487     0.477436     0.311246    Uiso  ? H
   C902       1.0     0.285993     0.508292     0.303012    Uiso  ? C
   H611       1.0     0.303427     0.531308     0.288027    Uiso  ? H
   C903       1.0     0.284907     0.489806     0.313274    Uiso  ? C
   H612       1.0     0.303234     0.466433     0.327935    Uiso  ? H
   H613       1.0     0.272917     0.519023     0.300328    Uiso  ? H
   C904       1.0     0.265770     0.483034     0.322707    Uiso  ? C
   H614       1.0     0.254256     0.484650     0.310165    Uiso  ? H
   H615       1.0     0.266697     0.466266     0.325846    Uiso  ? H
   N38        1.0     0.260304     0.493729     0.341246    Uiso  ? N
   C905       1.0     0.244772     0.488631     0.353952    Uiso  ? C
   N39        1.0     0.239912     0.503477     0.365299    Uiso  ? N
   C906       1.0     0.252960     0.518179     0.360742    Uiso  ? C
   H616       1.0     0.254256     0.533439     0.366880    Uiso  ? H
   C907       1.0     0.265627     0.512668     0.346065    Uiso  ? C
   H617       1.0     0.277715     0.521261     0.340254    Uiso  ? H
   N40        1.0     0.361714     0.497041     0.238991    Uiso  ? N
   C908       1.0     0.348336     0.482249     0.241506    Uiso  ? C
   H618       1.0     0.346906     0.469368     0.232632    Uiso  ? H
   H619       1.0     0.368561     0.522533     0.257827    Uiso  ? H
   H620       1.0     0.235950     0.475295     0.351909    Uiso  ? H
   C909       1.0     0.330687     0.494496     0.749960    Uiso  ? C
   H621       1.0     0.313414     0.495320     0.751888    Uiso  ? H
   C910       1.0     0.361113     0.506080     0.742848    Uiso  ? C
   N41        1.0     0.342149     0.505936     0.736779    Uiso  ? N
   C911       1.0     0.334222     0.519721     0.721587    Uiso  ? C
   H622       1.0     0.323732     0.530162     0.729453    Uiso  ? H
   H623       1.0     0.346478     0.529266     0.716978    Uiso  ? H
   C912       1.0     0.322593     0.509986     0.705081    Uiso  ? C
   C913       1.0     0.330850     0.506765     0.686491    Uiso  ? C
   C914       1.0     0.302769     0.505385     0.709386    Uiso  ? C
   C915       1.0     0.317904     0.498989     0.671087    Uiso  ? C
   H624       1.0     0.347150     0.508214     0.682395    Uiso  ? H
   C916       1.0     0.290381     0.496242     0.694876    Uiso  ? C
   H625       1.0     0.296226     0.507667     0.723401    Uiso  ? H
   C917       1.0     0.298099     0.494436     0.675330    Uiso  ? C
   H626       1.0     0.324901     0.494706     0.656645    Uiso  ? H
   H627       1.0     0.275446     0.493958     0.700320    Uiso  ? H
   C918       1.0     0.284489     0.486253     0.658514    Uiso  ? C
   H628       1.0     0.294413     0.485783     0.644713    Uiso  ? H
   H629       1.0     0.281109     0.470519     0.661772    Uiso  ? H
   N42        1.0     0.267716     0.498661     0.652085    Uiso  ? N
   C919       1.0     0.250407     0.491898     0.643954    Uiso  ? C
   N43        1.0     0.240335     0.506155     0.634879    Uiso  ? N
   C920       1.0     0.250402     0.523273     0.637889    Uiso  ? C
   H630       1.0     0.245205     0.537268     0.633514    Uiso  ? H
   C921       1.0     0.267812     0.518943     0.648246    Uiso  ? C
   H631       1.0     0.279031     0.529565     0.652619    Uiso  ? H
   N44        1.0     0.362430     0.494008     0.759760    Uiso  ? N
   C922       1.0     0.343865     0.486890     0.763960    Uiso  ? C
   H632       1.0     0.340631     0.479555     0.777677    Uiso  ? H
   H633       1.0     0.373401     0.514208     0.736494    Uiso  ? H
   H634       1.0     0.245870     0.476249     0.642830    Uiso  ? H
   C923       1.0     0.642934     0.495396     0.727747    Uiso  ? C
   H635       1.0     0.651062     0.485175     0.717679    Uiso  ? H
   C924       1.0     0.639358     0.519005     0.747616    Uiso  ? C
   N45        1.0     0.649717     0.513083     0.732156    Uiso  ? N
   C925       1.0     0.665041     0.525004     0.719591    Uiso  ? C
   H636       1.0     0.657225     0.535363     0.709477    Uiso  ? H
   H637       1.0     0.673381     0.534249     0.728490    Uiso  ? H
   C926       1.0     0.678345     0.511083     0.707228    Uiso  ? C
   C927       1.0     0.695844     0.504655     0.714637    Uiso  ? C
   C928       1.0     0.675922     0.510361     0.686454    Uiso  ? C
   C929       1.0     0.709630     0.494192     0.702698    Uiso  ? C
   H638       1.0     0.699316     0.505372     0.730464    Uiso  ? H
   C930       1.0     0.688872     0.500141     0.674437    Uiso  ? C
   H639       1.0     0.662992     0.519001     0.679389    Uiso  ? H
   C931       1.0     0.706859     0.493525     0.681873    Uiso  ? C
   H640       1.0     0.721210     0.485807     0.710726    Uiso  ? H
   H641       1.0     0.688404     0.500091     0.657625    Uiso  ? H
   C932       1.0     0.720949     0.481059     0.669663    Uiso  ? C
   H642       1.0     0.729864     0.469976     0.679383    Uiso  ? H
   H643       1.0     0.712655     0.471694     0.660163    Uiso  ? H
   N46        1.0     0.736122     0.491903     0.659065    Uiso  ? N
   C933       1.0     0.748788     0.484192     0.644230    Uiso  ? C
   N47        1.0     0.760511     0.498285     0.636148    Uiso  ? N
   C934       1.0     0.754178     0.515309     0.645375    Uiso  ? C
   H644       1.0     0.760096     0.530017     0.643480    Uiso  ? H
   C935       1.0     0.738665     0.511186     0.659331    Uiso  ? C
   H645       1.0     0.728990     0.522257     0.665872    Uiso  ? H
   N48        1.0     0.626243     0.504194     0.753849    Uiso  ? N
   C936       1.0     0.630076     0.488564     0.742031    Uiso  ? C
   H646       1.0     0.620675     0.475022     0.742359    Uiso  ? H
   H647       1.0     0.642637     0.532661     0.755096    Uiso  ? H
   H648       1.0     0.749918     0.469345     0.637909    Uiso  ? H
   C937       1.0     0.747389     0.725524     0.897376    Uiso  ? C
   H649       1.0     0.747675     0.709749     0.892373    Uiso  ? H
   C938       1.0     0.742000     0.755253     0.111326    Uiso  ? C
   N49        1.0     0.734907     0.736239     0.110498    Uiso  ? N
   C939       1.0     0.715611     0.730210     0.118584    Uiso  ? C
   H650       1.0     0.715749     0.732691     0.135343    Uiso  ? H
   H651       1.0     0.704128     0.740730     0.112381    Uiso  ? H
   C940       1.0     0.709066     0.709463     0.113261    Uiso  ? C
   C941       1.0     0.700125     0.705512     0.894866    Uiso  ? C
   C942       1.0     0.713526     0.693277     0.125946    Uiso  ? C
   C943       1.0     0.693605     0.686257     0.890282    Uiso  ? C
   H652       1.0     0.698478     0.717554     0.884973    Uiso  ? H
   C944       1.0     0.705759     0.674215     0.121372    Uiso  ? C
   H653       1.0     0.722729     0.696908     0.137911    Uiso  ? H
   C945       1.0     0.694250     0.672303     0.104335    Uiso  ? C
   H654       1.0     0.688751     0.682945     0.874744    Uiso  ? H
   H655       1.0     0.709452     0.661136     0.131181    Uiso  ? H
   C946       1.0     0.687628     0.650336     0.898703    Uiso  ? C
   H656       1.0     0.692610     0.647527     0.883036    Uiso  ? H
   H657       1.0     0.695406     0.639482     0.105657    Uiso  ? H
   N50        1.0     0.666080     0.648293     0.102174    Uiso  ? N
   C947       1.0     0.655185     0.631992     0.895853    Uiso  ? C
   N51        1.0     0.636598     0.633355     0.101805    Uiso  ? N
   C948       1.0     0.635723     0.649564     0.114114    Uiso  ? C
   H658       1.0     0.622275     0.653781     0.123429    Uiso  ? H
   C949       1.0     0.653871     0.658619     0.114326    Uiso  ? C
   H659       1.0     0.657563     0.670031     0.125149    Uiso  ? H
   N52        1.0     0.758490     0.757799     0.100437    Uiso  ? N
   C950       1.0     0.762018     0.739203     0.892252    Uiso  ? C
   H660       1.0     0.774271     0.735675     0.883244    Uiso  ? H
   H661       1.0     0.735620     0.765357     0.121095    Uiso  ? H
   H662       1.0     0.661953     0.620523     0.884270    Uiso  ? H
   C951       1.0     0.668457     0.355047     0.107897    Uiso  ? C
   H663       1.0     0.683404     0.351245     0.113482    Uiso  ? H
   C952       1.0     0.639755     0.349178     0.895691    Uiso  ? C
   N53        1.0     0.656727     0.339609     0.900000    Uiso  ? N
   C953       1.0     0.662295     0.318581     0.896512    Uiso  ? C
   H664       1.0     0.652191     0.310265     0.105880    Uiso  ? H
   H665       1.0     0.659302     0.315852     0.881145    Uiso  ? H
   C954       1.0     0.683990     0.314401     0.101071    Uiso  ? C
   C955       1.0     0.689662     0.305544     0.119752    Uiso  ? C
   C956       1.0     0.699262     0.316325     0.886491    Uiso  ? C
   C957       1.0     0.709667     0.301268     0.123855    Uiso  ? C
   H666       1.0     0.679277     0.303732     0.131528    Uiso  ? H
   C958       1.0     0.719165     0.309181     0.890256    Uiso  ? C
   H667       1.0     0.693135     0.322386     0.873190    Uiso  ? H
   C959       1.0     0.724589     0.302754     0.108371    Uiso  ? C
   H668       1.0     0.712672     0.295084     0.138740    Uiso  ? H
   H669       1.0     0.729748     0.307554     0.878008    Uiso  ? H
   C960       1.0     0.745543     0.294841     0.111417    Uiso  ? C
   H670       1.0     0.756395     0.302741     0.102858    Uiso  ? H
   H671       1.0     0.751224     0.297036     0.126568    Uiso  ? H
   N54        1.0     0.747385     0.273674     0.107397    Uiso  ? N
   C961       1.0     0.764476     0.263050     0.106730    Uiso  ? C
   N55        1.0     0.762109     0.243428     0.107098    Uiso  ? N
   C962       1.0     0.742133     0.241337     0.112356    Uiso  ? C
   H672       1.0     0.733146     0.227085     0.112946    Uiso  ? H
   C963       1.0     0.733019     0.259219     0.112361    Uiso  ? C
   H673       1.0     0.717193     0.261182     0.114088    Uiso  ? H
   N56        1.0     0.640225     0.368709     0.899957    Uiso  ? N
   C964       1.0     0.657890     0.372232     0.107381    Uiso  ? C
   H674       1.0     0.661713     0.385638     0.115314    Uiso  ? H
   H675       1.0     0.627091     0.342679     0.888435    Uiso  ? H
   H676       1.0     0.778506     0.270683     0.104935    Uiso  ? H
   C965       1.0     0.240320     0.719673     0.898139    Uiso  ? C
   H677       1.0     0.241316     0.703804     0.100740    Uiso  ? H
   C966       1.0     0.247800     0.750160     0.890658    Uiso  ? C
   N57        1.0     0.255392     0.731552     0.892127    Uiso  ? N
   C967       1.0     0.273632     0.726198     0.881170    Uiso  ? C
   H678       1.0     0.271084     0.723760     0.864844    Uiso  ? H
   H679       1.0     0.284619     0.737648     0.881070    Uiso  ? H
   C968       1.0     0.283953     0.706851     0.889182    Uiso  ? C
   C969       1.0     0.296160     0.708331     0.105663    Uiso  ? C
   C970       1.0     0.280866     0.688672     0.879400    Uiso  ? C
   C971       1.0     0.306629     0.691765     0.111707    Uiso  ? C
   H680       1.0     0.296391     0.722700     0.115060    Uiso  ? H
   C972       1.0     0.291595     0.671610     0.886000    Uiso  ? C
   H681       1.0     0.272608     0.685808     0.866340    Uiso  ? H
   C973       1.0     0.302560     0.672656     0.103579    Uiso  ? C
   H682       1.0     0.315935     0.693377     0.124405    Uiso  ? H
   H683       1.0     0.287513     0.657924     0.878537    Uiso  ? H
   C974       1.0     0.310875     0.654800     0.113261    Uiso  ? C
   H684       1.0     0.314406     0.659204     0.128599    Uiso  ? H
   H685       1.0     0.298979     0.642341     0.115157    Uiso  ? H
   N58        1.0     0.328327     0.647500     0.103095    Uiso  ? N
   C975       1.0     0.340418     0.633328     0.110336    Uiso  ? C
   N59        1.0     0.353822     0.626362     0.896441    Uiso  ? N
   C976       1.0     0.350471     0.637511     0.880349    Uiso  ? C
   H686       1.0     0.360473     0.637122     0.866633    Uiso  ? H
   C977       1.0     0.335503     0.651144     0.885120    Uiso  ? C
   H687       1.0     0.328046     0.659988     0.873607    Uiso  ? H
   N60        1.0     0.228251     0.750428     0.896069    Uiso  ? N
   C978       1.0     0.223292     0.732350     0.100000    Uiso  ? C
   H688       1.0     0.207733     0.728185     0.104401    Uiso  ? H
   H689       1.0     0.255884     0.761904     0.884148    Uiso  ? H
   H690       1.0     0.338269     0.626365     0.125045    Uiso  ? H
   C979       1.0     0.331574     0.355920     0.105942    Uiso  ? C
   H691       1.0     0.316164     0.354435     0.104200    Uiso  ? H
   C980       1.0     0.363646     0.349753     0.103700    Uiso  ? C
   N61        1.0     0.344677     0.340763     0.103392    Uiso  ? N
   C981       1.0     0.341647     0.319030     0.101420    Uiso  ? C
   H692       1.0     0.347469     0.313304     0.886981    Uiso  ? H
   H693       1.0     0.350407     0.309348     0.111551    Uiso  ? H
   C982       1.0     0.319457     0.312220     0.103808    Uiso  ? C
   C983       1.0     0.309044     0.309253     0.122093    Uiso  ? C
   C984       1.0     0.309349     0.306373     0.886383    Uiso  ? C
   C985       1.0     0.290257     0.299881     0.122504    Uiso  ? C
   H694       1.0     0.318259     0.311855     0.134397    Uiso  ? H
   C986       1.0     0.289762     0.299777     0.886692    Uiso  ? C
   H695       1.0     0.316557     0.306657     0.871420    Uiso  ? H
   C987       1.0     0.280546     0.295912     0.104623    Uiso  ? C
   H696       1.0     0.282963     0.296041     0.136264    Uiso  ? H
   H697       1.0     0.283288     0.295485     0.872896    Uiso  ? H
   C988       1.0     0.258705     0.287779     0.104502    Uiso  ? C
   H698       1.0     0.251015     0.293092     0.117235    Uiso  ? H
   H699       1.0     0.251207     0.293521     0.891340    Uiso  ? H
   N62        1.0     0.257800     0.265580     0.103770    Uiso  ? N
   C989       1.0     0.241600     0.253979     0.110266    Uiso  ? C
   N63        1.0     0.243516     0.234709     0.103547    Uiso  ? N
   C990       1.0     0.261479     0.232686     0.894984    Uiso  ? C
   H700       1.0     0.265368     0.219228     0.886792    Uiso  ? H
   C991       1.0     0.270102     0.251377     0.894487    Uiso  ? C
   H701       1.0     0.282436     0.257274     0.886027    Uiso  ? H
   N64        1.0     0.361693     0.370152     0.103505    Uiso  ? N
   C992       1.0     0.341939     0.373941     0.106721    Uiso  ? C
   H702       1.0     0.336031     0.389382     0.105958    Uiso  ? H
   H703       1.0     0.377375     0.341875     0.101260    Uiso  ? H
   H704       1.0     0.227117     0.260677     0.113417    Uiso  ? H
   C993       1.0     0.662147     0.102135     0.659393    Uiso  ? C
   H705       1.0     0.677413     0.106844     0.663808    Uiso  ? H
   C994       1.0     0.631578     0.887339     0.660680    Uiso  ? C
   N65        1.0     0.647512     0.889440     0.672306    Uiso  ? N
   C995       1.0     0.647941     0.886786     0.694246    Uiso  ? C
   H706       1.0     0.641896     0.103866     0.700051    Uiso  ? H
   H707       1.0     0.639952     0.873786     0.699072    Uiso  ? H
   C996       1.0     0.668949     0.886915     0.702568    Uiso  ? C
   C997       1.0     0.681056     0.869371     0.703892    Uiso  ? C
   C998       1.0     0.678014     0.110249     0.705664    Uiso  ? C
   C999       1.0     0.701393     0.871036     0.708211    Uiso  ? C
   H708       1.0     0.674392     0.854971     0.699413    Uiso  ? H
   C1000      1.0     0.699335     0.111691     0.709854    Uiso  ? C
   H709       1.0     0.669495     0.123178     0.703925    Uiso  ? H
   C1001      1.0     0.710577     0.890276     0.711127    Uiso  ? C
   H710       1.0     0.710326     0.857719     0.707977    Uiso  ? H
   H711       1.0     0.705070     0.125567     0.711958    Uiso  ? H
   C1002      1.0     0.732354     0.892650     0.714976    Uiso  ? C
   H712       1.0     0.742097     0.880556     0.708682    Uiso  ? H
   H713       1.0     0.737569     0.111428     0.706870    Uiso  ? H
   N66        1.0     0.734870     0.892578     0.736858    Uiso  ? N
   C1003      1.0     0.752568     0.896958     0.745335    Uiso  ? C
   N67        1.0     0.751497     0.897202     0.765144    Uiso  ? N
   C1004      1.0     0.731816     0.894626     0.769984    Uiso  ? C
   H714       1.0     0.723949     0.895968     0.783448    Uiso  ? H
   C1005      1.0     0.722045     0.891693     0.752668    Uiso  ? C
   H715       1.0     0.707084     0.886438     0.751565    Uiso  ? H
   N68        1.0     0.633008     0.894730     0.642199    Uiso  ? N
   C1006      1.0     0.652986     0.104480     0.641063    Uiso  ? C
   H716       1.0     0.658793     0.113327     0.628028    Uiso  ? H
   H717       1.0     0.617734     0.880912     0.665121    Uiso  ? H
   H718       1.0     0.766232     0.896633     0.737205    Uiso  ? H
   C1007      1.0     0.275720     0.107620     0.754730    Uiso  ? C
   H719       1.0     0.291395     0.110393     0.752990    Uiso  ? H
   C1008      1.0     0.244312     0.896752     0.747349    Uiso  ? C
   N69        1.0     0.263513     0.101879     0.739475    Uiso  ? N
   C1009      1.0     0.267452     0.892197     0.718376    Uiso  ? C
   H720       1.0     0.266518     0.875807     0.715733    Uiso  ? H
   H721       1.0     0.256557     0.102753     0.710358    Uiso  ? H
   C1010      1.0     0.288155     0.103752     0.711015    Uiso  ? C
   C1011      1.0     0.293294     0.123343     0.711127    Uiso  ? C
   C1012      1.0     0.300315     0.885948     0.701690    Uiso  ? C
   C1013      1.0     0.311115     0.129793     0.701434    Uiso  ? C
   H722       1.0     0.281817     0.134646     0.714438    Uiso  ? H
   C1014      1.0     0.318806     0.892488     0.694595    Uiso  ? C
   H723       1.0     0.295732     0.870398     0.700245    Uiso  ? H
   C1015      1.0     0.324535     0.116353     0.693291    Uiso  ? C
   H724       1.0     0.313834     0.146256     0.699245    Uiso  ? H
   H725       1.0     0.329300     0.881686     0.687595    Uiso  ? H
   C1016      1.0     0.344043     0.124208     0.685048    Uiso  ? C
   H726       1.0     0.342650     0.140436     0.686191    Uiso  ? H
   H727       1.0     0.356859     0.118053     0.694761    Uiso  ? H
   N70        1.0     0.346979     0.118549     0.663635    Uiso  ? N
   C1017      1.0     0.364559     0.115242     0.654910    Uiso  ? C
   N71        1.0     0.362023     0.111997     0.634929    Uiso  ? N
   C1018      1.0     0.342249     0.113158     0.631487    Uiso  ? C
   H728       1.0     0.335921     0.110292     0.616938    Uiso  ? H
   C1019      1.0     0.332740     0.116745     0.648869    Uiso  ? C
   H729       1.0     0.317443     0.119595     0.652258    Uiso  ? H
   N72        1.0     0.245072     0.105426     0.766862    Uiso  ? N
   C1020      1.0     0.264082     0.110498     0.771669    Uiso  ? C
   H730       1.0     0.269699     0.114819     0.786504    Uiso  ? H
   H731       1.0     0.230938     0.889395     0.740343    Uiso  ? H
   H732       1.0     0.378325     0.116923     0.661825    Uiso  ? H
   C1021      1.0     0.270277     0.885928     0.251709    Uiso  ? C
   H733       1.0     0.285040     0.880035     0.252979    Uiso  ? H
   C1022      1.0     0.246556     0.110335     0.251902    Uiso  ? C
   N73        1.0     0.264183     0.106714     0.260789    Uiso  ? N
   C1023      1.0     0.275218     0.121650     0.271675    Uiso  ? C
   H734       1.0     0.282626     0.133048     0.262482    Uiso  ? H
   H735       1.0     0.264412     0.131386     0.280972    Uiso  ? H
   C1024      1.0     0.289394     0.111578     0.285813    Uiso  ? C
   C1025      1.0     0.308905     0.108504     0.278772    Uiso  ? C
   C1026      1.0     0.284221     0.107182     0.304858    Uiso  ? C
   C1027      1.0     0.322619     0.897835     0.291664    Uiso  ? C
   H736       1.0     0.313806     0.112187     0.264620    Uiso  ? H
   C1028      1.0     0.299183     0.102929     0.318328    Uiso  ? C
   H737       1.0     0.270395     0.112324     0.310320    Uiso  ? H
   C1029      1.0     0.318096     0.894451     0.311895    Uiso  ? C
   H738       1.0     0.337822     0.895948     0.287184    Uiso  ? H
   H739       1.0     0.295658     0.104575     0.334336    Uiso  ? H
   C1030      1.0     0.333238     0.884549     0.325694    Uiso  ? C
   H740       1.0     0.325273     0.872681     0.333485    Uiso  ? H
   H741       1.0     0.346645     0.877169     0.317427    Uiso  ? H
   N74        1.0     0.342298     0.898121     0.340350    Uiso  ? N
   C1031      1.0     0.356699     0.892953     0.353616    Uiso  ? C
   N75        1.0     0.362884     0.112499     0.364899    Uiso  ? N
   C1032      1.0     0.353036     0.127845     0.358186    Uiso  ? C
   H742       1.0     0.355041     0.144058     0.363455    Uiso  ? H
   C1033      1.0     0.340548     0.121694     0.342903    Uiso  ? C
   H743       1.0     0.329250     0.131275     0.334713    Uiso  ? H
   N76        1.0     0.241551     0.891908     0.237840    Uiso  ? N
   C1034      1.0     0.257101     0.879018     0.238033    Uiso  ? C
   H744       1.0     0.259999     0.869137     0.225618    Uiso  ? H
   H745       1.0     0.237836     0.124073     0.251931    Uiso  ? H
   H746       1.0     0.361486     0.877591     0.356631    Uiso  ? H
   C1035      1.0     0.659854     0.882011     0.343623    Uiso  ? C
   H747       1.0     0.666215     0.869879     0.336418    Uiso  ? H
   C1036      1.0     0.655908     0.113853     0.359174    Uiso  ? C
   N77        1.0     0.668872     0.103732     0.347028    Uiso  ? N
   C1037      1.0     0.690259     0.108004     0.343636    Uiso  ? C
   H748       1.0     0.693922     0.122296     0.349411    Uiso  ? H
   H749       1.0     0.697416     0.892836     0.350876    Uiso  ? H
   C1038      1.0     0.695692     0.107402     0.321572    Uiso  ? C
   C1039      1.0     0.695846     0.126665     0.311779    Uiso  ? C
   C1040      1.0     0.701393     0.885637     0.310467    Uiso  ? C
   C1041      1.0     0.700559     0.128031     0.291825    Uiso  ? C
   H750       1.0     0.688226     0.138746     0.318614    Uiso  ? H
   C1042      1.0     0.705789     0.887573     0.290159    Uiso  ? C
   H751       1.0     0.702367     0.871661     0.316925    Uiso  ? H
   C1043      1.0     0.706130     0.110648     0.280595    Uiso  ? C
   H752       1.0     0.699353     0.141055     0.282201    Uiso  ? H
   H753       1.0     0.710481     0.874810     0.282273    Uiso  ? H
   C1044      1.0     0.711887     0.111862     0.258614    Uiso  ? C
   H754       1.0     0.703167     0.895865     0.249106    Uiso  ? H
   H755       1.0     0.705684     0.126914     0.252772    Uiso  ? H
   N78        1.0     0.733262     0.110824     0.256198    Uiso  ? N
   C1045      1.0     0.743283     0.106583     0.239324    Uiso  ? C
   N79        1.0     0.762964     0.109263     0.240159    Uiso  ? N
   C1046      1.0     0.766311     0.115602     0.259023    Uiso  ? C
   H756       1.0     0.780460     0.121296     0.263685    Uiso  ? H
   C1047      1.0     0.748118     0.117506     0.269054    Uiso  ? C
   H757       1.0     0.745102     0.123424     0.283944    Uiso  ? H
   N80        1.0     0.639503     0.102845     0.361683    Uiso  ? N
   C1048      1.0     0.641954     0.881701     0.352055    Uiso  ? C
   H758       1.0     0.632273     0.869131     0.354080    Uiso  ? H
   H759       1.0     0.659755     0.127147     0.365743    Uiso  ? H
   H760       1.0     0.737567     0.103093     0.225103    Uiso  ? H
   C1049      1.0     0.893391     0.341897     0.666355    Uiso  ? C
   H761       1.0     0.887022     0.340150     0.680397    Uiso  ? H
   C1050      1.0     0.105042     0.336392     0.635755    Uiso  ? C
   N81        1.0     0.897387     0.327824     0.653084    Uiso  ? N
   C1051      1.0     0.889788     0.306442     0.655384    Uiso  ? C
   H762       1.0     0.873303     0.306402     0.653749    Uiso  ? H
   H763       1.0     0.102905     0.297246     0.644376    Uiso  ? H
   C1052      1.0     0.895338     0.297406     0.674585    Uiso  ? C
   C1053      1.0     0.119543     0.296396     0.678731    Uiso  ? C
   C1054      1.0     0.881316     0.290084     0.688230    Uiso  ? C
   C1055      1.0     0.126033     0.289880     0.697518    Uiso  ? C
   H764       1.0     0.130258     0.301945     0.668587    Uiso  ? H
   C1056      1.0     0.887843     0.282141     0.706811    Uiso  ? C
   H765       1.0     0.865890     0.288101     0.685519    Uiso  ? H
   C1057      1.0     0.111882     0.282070     0.711259    Uiso  ? C
   H766       1.0     0.141418     0.291617     0.702027    Uiso  ? H
   H767       1.0     0.876714     0.275744     0.715313    Uiso  ? H
   C1058      1.0     0.119123     0.275698     0.731432    Uiso  ? C
   H768       1.0     0.134855     0.279105     0.734122    Uiso  ? H
   H769       1.0     0.113028     0.286664     0.742546    Uiso  ? H
   N82        1.0     0.114886     0.255566     0.736959    Uiso  ? N
   C1059      1.0     0.107664     0.250370     0.754815    Uiso  ? C
   N83        1.0     0.110472     0.230180     0.758782    Uiso  ? N
   C1060      1.0     0.122263     0.223439     0.744316    Uiso  ? C
   H770       1.0     0.128532     0.208830     0.744002    Uiso  ? H
   C1061      1.0     0.124934     0.239659     0.731293    Uiso  ? C
   H771       1.0     0.137177     0.241153     0.720371    Uiso  ? H
   N84        1.0     0.104533     0.356258     0.637232    Uiso  ? N
   C1062      1.0     0.896208     0.359996     0.656732    Uiso  ? C
   H772       1.0     0.893801     0.375227     0.663054    Uiso  ? H
   H773       1.0     0.104240     0.328134     0.622069    Uiso  ? H
   H774       1.0     0.898079     0.260679     0.765851    Uiso  ? H
   C1063      1.0     0.108958     0.749180     0.734717    Uiso  ? C
   H775       1.0     0.115882     0.746422     0.720702    Uiso  ? H
   C1064      1.0     0.887737     0.747990     0.760659    Uiso  ? C
   N85        1.0     0.891557     0.737898     0.744131    Uiso  ? N
   C1065      1.0     0.886016     0.717075     0.740598    Uiso  ? C
   H776       1.0     0.892195     0.707991     0.753014    Uiso  ? H
   H777       1.0     0.869451     0.715226     0.741261    Uiso  ? H
   C1066      1.0     0.892650     0.708640     0.720896    Uiso  ? C
   C1067      1.0     0.110806     0.693814     0.720011    Uiso  ? C
   C1068      1.0     0.882337     0.713678     0.702937    Uiso  ? C
   C1069      1.0     0.117598     0.686862     0.700591    Uiso  ? C
   H778       1.0     0.120206     0.691115     0.733054    Uiso  ? H
   C1070      1.0     0.887356     0.704955     0.684972    Uiso  ? C
   H779       1.0     0.868409     0.723168     0.703050    Uiso  ? H
   C1071      1.0     0.106370     0.690480     0.683445    Uiso  ? C
   H780       1.0     0.129584     0.677954     0.698826    Uiso  ? H
   H781       1.0     0.880141     0.710786     0.672803    Uiso  ? H
   C1072      1.0     0.112778     0.681916     0.663060    Uiso  ? C
   H782       1.0     0.102577     0.688441     0.651971    Uiso  ? H
   H783       1.0     0.127285     0.688904     0.660306    Uiso  ? H
   N86        1.0     0.110210     0.660007     0.660704    Uiso  ? N
   C1073      1.0     0.111915     0.649981     0.643136    Uiso  ? C
   N87        1.0     0.101764     0.632663     0.642568    Uiso  ? N
   C1074      1.0     0.887564     0.631979     0.659447    Uiso  ? C
   H784       1.0     0.876357     0.620630     0.663486    Uiso  ? H
   C1075      1.0     0.894454     0.648093     0.671230    Uiso  ? C
   H785       1.0     0.890795     0.650254     0.687070    Uiso  ? H
   N88        1.0     0.896448     0.766219     0.761507    Uiso  ? N
   C1076      1.0     0.112140     0.767033     0.745160    Uiso  ? C
   H786       1.0     0.121403     0.779213     0.741705    Uiso  ? H
   H787       1.0     0.879388     0.742469     0.774019    Uiso  ? H
   H788       1.0     0.117745     0.658407     0.630657    Uiso  ? H
   C1077      1.0     0.112595     0.657713     0.338532    Uiso  ? C
   H789       1.0     0.117930     0.672736     0.334840    Uiso  ? H
   C1078      1.0     0.892701     0.631326     0.339737    Uiso  ? C
   N89        1.0     0.896251     0.647956     0.328485    Uiso  ? N
   C1079      1.0     0.881161     0.655947     0.314476    Uiso  ? C
   H790       1.0     0.880813     0.645239     0.301948    Uiso  ? H
   H791       1.0     0.865955     0.655038     0.320227    Uiso  ? H
   C1080      1.0     0.885551     0.676507     0.305702    Uiso  ? C
   C1081      1.0     0.874582     0.693696     0.311574    Uiso  ? C
   C1082      1.0     0.104776     0.678933     0.291623    Uiso  ? C
   C1083      1.0     0.881265     0.712997     0.303117    Uiso  ? C
   H792       1.0     0.864666     0.691995     0.323315    Uiso  ? H
   C1084      1.0     0.110894     0.697943     0.284937    Uiso  ? C
   H793       1.0     0.111148     0.665832     0.284621    Uiso  ? H
   C1085      1.0     0.897758     0.714540     0.289974    Uiso  ? C
   H794       1.0     0.870912     0.725488     0.303406    Uiso  ? H
   H795       1.0     0.122547     0.696551     0.273407    Uiso  ? H
   C1086      1.0     0.108261     0.735790     0.282885    Uiso  ? C
   H796       1.0     0.103115     0.747610     0.292942    Uiso  ? H
   H797       1.0     0.125811     0.735000     0.283303    Uiso  ? H
   N90        1.0     0.102239     0.741028     0.262897    Uiso  ? N
   C1087      1.0     0.897632     0.760050     0.255553    Uiso  ? C
   N91        1.0     0.896428     0.760331     0.235433    Uiso  ? N
   C1088      1.0     0.894639     0.741647     0.230469    Uiso  ? C
   H798       1.0     0.892729     0.733938     0.216115    Uiso  ? H
   C1089      1.0     0.894615     0.729189     0.246834    Uiso  ? C
   H799       1.0     0.894277     0.713450     0.246934    Uiso  ? H
   N92        1.0     0.108164     0.630788     0.356618    Uiso  ? N
   C1090      1.0     0.118948     0.647190     0.355075    Uiso  ? C
   H800       1.0     0.129758     0.653360     0.365767    Uiso  ? H
   H801       1.0     0.879211     0.624665     0.338338    Uiso  ? H
   H802       1.0     0.104229     0.773548     0.264157    Uiso  ? H
   C1091      1.0     0.121686     0.350893     0.333634    Uiso  ? C
   H803       1.0     0.129489     0.347480     0.320245    Uiso  ? H
   C1092      1.0     0.104282     0.348463     0.359554    Uiso  ? C
   N93        1.0     0.110305     0.337962     0.343320    Uiso  ? N
   C1093      1.0     0.106386     0.316672     0.340599    Uiso  ? C
   H804       1.0     0.116046     0.308863     0.352362    Uiso  ? H
   H805       1.0     0.886070     0.313021     0.343662    Uiso  ? H
   C1094      1.0     0.110767     0.307670     0.319963    Uiso  ? C
   C1095      1.0     0.893137     0.309077     0.304000    Uiso  ? C
   C1096      1.0     0.129253     0.296855     0.315830    Uiso  ? C
   C1097      1.0     0.897438     0.301560     0.285459    Uiso  ? C
   H806       1.0     0.879295     0.316109     0.307577    Uiso  ? H
   C1098      1.0     0.133892     0.290293     0.295681    Uiso  ? C
   H807       1.0     0.140124     0.294908     0.328457    Uiso  ? H
   C1099      1.0     0.119435     0.291994     0.280761    Uiso  ? C
   H808       1.0     0.885036     0.303594     0.275506    Uiso  ? H
   H809       1.0     0.146489     0.280413     0.294207    Uiso  ? H
   C1100      1.0     0.124324     0.284690     0.259304    Uiso  ? C
   H810       1.0     0.116791     0.295100     0.248350    Uiso  ? H
   H811       1.0     0.139384     0.285289     0.256028    Uiso  ? H
   N94        1.0     0.116694     0.264828     0.257126    Uiso  ? N
   C1101      1.0     0.112266     0.256376     0.239392    Uiso  ? C
   N95        1.0     0.108608     0.236048     0.241183    Uiso  ? N
   C1102      1.0     0.110816     0.231965     0.260431    Uiso  ? C
   H812       1.0     0.106865     0.218383     0.267436    Uiso  ? H
   C1103      1.0     0.115740     0.249380     0.269959    Uiso  ? C
   H813       1.0     0.114510     0.250740     0.286179    Uiso  ? H
   N96        1.0     0.111901     0.367178     0.360817    Uiso  ? N
   C1104      1.0     0.124158     0.368303     0.344914    Uiso  ? C
   H814       1.0     0.134196     0.380861     0.341945    Uiso  ? H
   H815       1.0     0.889633     0.341885     0.369918    Uiso  ? H
   H816       1.0     0.113654     0.263956     0.224779    Uiso  ? H
