
#======================================================================
# CRYSTAL DATA
#----------------------------------------------------------------------
data_VESTA_phase_1

_chemical_name_common                  ' Atoms. Timestep: 0'
_cell_length_a                         60.486542
_cell_length_b                         60.486542
_cell_length_c                         60.486542
_cell_angle_alpha                      90.000000
_cell_angle_beta                       90.000000
_cell_angle_gamma                      90.000000
_cell_volume                           1.000000
_space_group_name_H-M_alt              'P 1'
_space_group_IT_number                 1

loop_
_space_group_symop_operation_xyz
   'x, y, z'

loop_
   _atom_site_label
   _atom_site_occupancy
   _atom_site_fract_x
   _atom_site_fract_y
   _atom_site_fract_z
   _atom_site_adp_type
   _atom_site_U_iso_or_equiv
   _atom_site_type_symbol
   C1         1.0     0.862142     0.246894     0.148044    Uiso  ? C
   C2         1.0     0.844418     0.252883     0.132462    Uiso  ? C
   C3         1.0     0.840274     0.274630     0.126671    Uiso  ? C
   H1         1.0     0.849968     0.288203     0.133797    Uiso  ? H
   C4         1.0     0.822550     0.280058     0.113074    Uiso  ? C
   H2         1.0     0.819169     0.297332     0.110112    Uiso  ? H
   C5         1.0     0.809302     0.263596     0.104213    Uiso  ? C
   H3         1.0     0.795597     0.268263     0.894238    Uiso  ? H
   C6         1.0     0.813768     0.241161     0.109037    Uiso  ? C
   C7         1.0     0.830760     0.236333     0.124061    Uiso  ? C
   H4         1.0     0.832238     0.219019     0.129049    Uiso  ? H
   C8         1.0     0.799994     0.222947     0.899739    Uiso  ? C
   C9         1.0     0.870661     0.213177     0.208152    Uiso  ? C
   C10        1.0     0.856114     0.202275     0.224740    Uiso  ? C
   C11        1.0     0.849635     0.214458     0.243006    Uiso  ? C
   H5         1.0     0.858439     0.229877     0.247194    Uiso  ? H
   C12        1.0     0.833815     0.206824     0.257533    Uiso  ? C
   H6         1.0     0.829289     0.215820     0.272123    Uiso  ? H
   C13        1.0     0.822925     0.186563     0.252998    Uiso  ? C
   H7         1.0     0.810866     0.180684     0.265001    Uiso  ? H
   C14        1.0     0.827667     0.174848     0.233597    Uiso  ? C
   C15        1.0     0.845760     0.181773     0.219814    Uiso  ? C
   H8         1.0     0.850502     0.171940     0.205026    Uiso  ? H
   C16        1.0     0.815566     0.154511     0.228572    Uiso  ? C
   C17        1.0     0.126422     0.219818     0.202731    Uiso  ? C
   C18        1.0     0.146238     0.213428     0.215620    Uiso  ? C
   C19        1.0     0.155814     0.228841     0.230398    Uiso  ? C
   H9         1.0     0.148445     0.245075     0.233436    Uiso  ? H
   C20        1.0     0.176260     0.224234     0.240842    Uiso  ? C
   H10        1.0     0.183605     0.236955     0.251414    Uiso  ? H
   C21        1.0     0.186546     0.204259     0.237084    Uiso  ? C
   H11        1.0     0.203014     0.202442     0.243884    Uiso  ? H
   C22        1.0     0.176870     0.188326     0.222995    Uiso  ? C
   C23        1.0     0.156631     0.192896     0.212727    Uiso  ? C
   H12        1.0     0.148957     0.180856     0.201678    Uiso  ? H
   C24        1.0     0.188796     0.167639     0.217329    Uiso  ? C
   C25        1.0     0.134479     0.243372     0.157622    Uiso  ? C
   C26        1.0     0.156557     0.249808     0.148815    Uiso  ? C
   C27        1.0     0.169284     0.266458     0.158967    Uiso  ? C
   H13        1.0     0.164117     0.274979     0.173196    Uiso  ? H
   C28        1.0     0.188542     0.273939     0.149011    Uiso  ? C
   H14        1.0     0.197532     0.288345     0.155909    Uiso  ? H
   C29        1.0     0.196992     0.263717     0.130452    Uiso  ? C
   H15        1.0     0.212654     0.270087     0.124542    Uiso  ? H
   C30        1.0     0.184915     0.246671     0.119960    Uiso  ? C
   C31        1.0     0.164225     0.240851     0.128755    Uiso  ? C
   H16        1.0     0.153830     0.228214     0.120049    Uiso  ? H
   C32        1.0     0.195125     0.234399     0.101985    Uiso  ? C
   C33        1.0     0.763843     0.167312     0.849397    Uiso  ? C
   C34        1.0     0.754971     0.152622     0.832261    Uiso  ? C
   C35        1.0     0.736995     0.159259     0.818855    Uiso  ? C
   H17        1.0     0.729022     0.174355     0.822766    Uiso  ? H
   C36        1.0     0.728678     0.145390     0.802540    Uiso  ? C
   H18        1.0     0.716381     0.151317     0.790759    Uiso  ? H
   C37        1.0     0.739325     0.125313     0.798412    Uiso  ? C
   H19        1.0     0.732515     0.115559     0.786006    Uiso  ? H
   C38        1.0     0.758364     0.118929     0.811154    Uiso  ? C
   C39        1.0     0.765317     0.131943     0.828356    Uiso  ? C
   H20        1.0     0.779395     0.127306     0.838226    Uiso  ? H
   C40        1.0     0.768091     0.893749     0.807543    Uiso  ? C
   C41        1.0     0.753546     0.176190     0.114288    Uiso  ? C
   C42        1.0     0.744657     0.167970     0.135506    Uiso  ? C
   C43        1.0     0.723546     0.174523     0.142952    Uiso  ? C
   H21        1.0     0.713299     0.184834     0.132447    Uiso  ? H
   C44        1.0     0.716009     0.168232     0.163296    Uiso  ? C
   H22        1.0     0.699701     0.174451     0.169204    Uiso  ? H
   C45        1.0     0.728059     0.154047     0.177164    Uiso  ? C
   H23        1.0     0.721536     0.149598     0.193253    Uiso  ? H
   C46        1.0     0.749800     0.147845     0.170683    Uiso  ? C
   C47        1.0     0.758279     0.155720     0.149968    Uiso  ? C
   H24        1.0     0.774916     0.151956     0.145153    Uiso  ? H
   C48        1.0     0.765210     0.135850     0.185662    Uiso  ? C
   C49        1.0     0.798320     0.206359     0.850563    Uiso  ? C
   C50        1.0     0.812176     0.215682     0.833164    Uiso  ? C
   C51        1.0     0.807996     0.237247     0.825428    Uiso  ? C
   H25        1.0     0.794413     0.247216     0.832142    Uiso  ? H
   C52        1.0     0.821875     0.247526     0.810144    Uiso  ? C
   H26        1.0     0.817851     0.264629     0.804939    Uiso  ? H
   C53        1.0     0.840517     0.236452     0.802833    Uiso  ? C
   H27        1.0     0.852185     0.243824     0.792072    Uiso  ? H
   C54        1.0     0.844520     0.214112     0.808715    Uiso  ? C
   C55        1.0     0.830276     0.204165     0.824400    Uiso  ? C
   H28        1.0     0.833036     0.187089     0.829082    Uiso  ? H
   C56        1.0     0.864242     0.202273     0.800103    Uiso  ? C
   C57        1.0     0.771446     0.880732     0.202667    Uiso  ? C
   C58        1.0     0.760253     0.861398     0.193114    Uiso  ? C
   C59        1.0     0.737670     0.858358     0.196833    Uiso  ? C
   H29        1.0     0.728998     0.871558     0.205268    Uiso  ? H
   C60        1.0     0.726535     0.839952     0.188512    Uiso  ? C
   H30        1.0     0.708941     0.837891     0.191211    Uiso  ? H
   C61        1.0     0.737812     0.823575     0.176398    Uiso  ? C
   H31        1.0     0.728263     0.809850     0.170335    Uiso  ? H
   C62        1.0     0.760439     0.825986     0.173079    Uiso  ? C
   C63        1.0     0.771335     0.844229     0.182423    Uiso  ? C
   H32        1.0     0.788997     0.845565     0.179964    Uiso  ? H
   C64        1.0     0.772894     0.809337     0.160194    Uiso  ? C
   C65        1.0     0.804721     0.883281     0.241007    Uiso  ? C
   C66        1.0     0.814219     0.864862     0.253914    Uiso  ? C
   C67        1.0     0.806526     0.859934     0.275372    Uiso  ? C
   H33        1.0     0.793393     0.869599     0.282669    Uiso  ? H
   C68        1.0     0.816382     0.843745     0.287730    Uiso  ? C
   H34        1.0     0.809762     0.840634     0.304327    Uiso  ? H
   C69        1.0     0.835136     0.831802     0.279733    Uiso  ? C
   H35        1.0     0.843217     0.820300     0.290790    Uiso  ? H
   C70        1.0     0.844021     0.837140     0.258118    Uiso  ? C
   C71        1.0     0.833028     0.853393     0.245690    Uiso  ? C
   H36        1.0     0.839307     0.857264     0.229630    Uiso  ? H
   C72        1.0     0.865680     0.829851     0.250591    Uiso  ? C
   C73        1.0     0.861258     0.156596     0.771924    Uiso  ? C
   C74        1.0     0.843100     0.142629     0.763090    Uiso  ? C
   C75        1.0     0.834829     0.147574     0.742001    Uiso  ? C
   H37        1.0     0.840425     0.161564     0.732655    Uiso  ? H
   C76        1.0     0.819825     0.132453     0.732262    Uiso  ? C
   H38        1.0     0.812339     0.135479     0.715792    Uiso  ? H
   C77        1.0     0.812820     0.113841     0.743792    Uiso  ? C
   H39        1.0     0.799844     0.104018     0.736737    Uiso  ? H
   C78        1.0     0.819739     0.110416     0.765568    Uiso  ? C
   C79        1.0     0.834673     0.125027     0.775569    Uiso  ? C
   H40        1.0     0.841399     0.121569     0.791668    Uiso  ? H
   C80        1.0     0.809418     0.888500     0.778037    Uiso  ? C
   C81        1.0     0.119805     0.211435     0.803883    Uiso  ? C
   C82        1.0     0.134070     0.227716     0.814373    Uiso  ? C
   C83        1.0     0.135182     0.249562     0.805758    Uiso  ? C
   H41        1.0     0.124176     0.256730     0.793510    Uiso  ? H
   C84        1.0     0.151532     0.263968     0.812984    Uiso  ? C
   H42        1.0     0.153094     0.280610     0.806472    Uiso  ? H
   C85        1.0     0.167101     0.256965     0.828386    Uiso  ? C
   H43        1.0     0.179851     0.267805     0.833884    Uiso  ? H
   C86        1.0     0.165870     0.235680     0.837079    Uiso  ? C
   C87        1.0     0.149038     0.220882     0.830199    Uiso  ? C
   H44        1.0     0.149982     0.203639     0.836201    Uiso  ? H
   C88        1.0     0.182900     0.227354     0.852257    Uiso  ? C
   C89        1.0     0.236033     0.203539     0.111797    Uiso  ? C
   C90        1.0     0.243112     0.201117     0.135325    Uiso  ? C
   C91        1.0     0.255617     0.218169     0.144805    Uiso  ? C
   H45        1.0     0.261690     0.232138     0.135737    Uiso  ? H
   C92        1.0     0.262207     0.216955     0.166703    Uiso  ? C
   H46        1.0     0.270868     0.230846     0.173870    Uiso  ? H
   C93        1.0     0.254144     0.199967     0.180316    Uiso  ? C
   H47        1.0     0.257391     0.201406     0.197642    Uiso  ? H
   C94        1.0     0.240420     0.182523     0.170982    Uiso  ? C
   C95        1.0     0.236390     0.182767     0.148031    Uiso  ? C
   H48        1.0     0.226367     0.169737     0.139658    Uiso  ? H
   C96        1.0     0.232065     0.164259     0.184693    Uiso  ? C
   O1         1.0     0.863873     0.226829     0.154597    Uiso  ? O
   O2         1.0     0.874657     0.261997     0.155220    Uiso  ? O
   O3         1.0     0.883691     0.200981     0.196630    Uiso  ? O
   O4         1.0     0.869473     0.234227     0.205109    Uiso  ? O
   O5         1.0     0.113948     0.205307     0.193630    Uiso  ? O
   O6         1.0     0.122089     0.240227     0.199117    Uiso  ? O
   O7         1.0     0.124472     0.226269     0.150046    Uiso  ? O
   O8         1.0     0.126333     0.254129     0.174069    Uiso  ? O
   O9         1.0     0.783983     0.165454     0.856246    Uiso  ? O
   O10        1.0     0.750836     0.181177     0.857739    Uiso  ? O
   O11        1.0     0.766223     0.163741     0.102394    Uiso  ? O
   O12        1.0     0.749927     0.196190     0.108980    Uiso  ? O
   O13        1.0     0.804217     0.203693     0.102145    Uiso  ? O
   O14        1.0     0.784475     0.227768     0.886324    Uiso  ? O
   O15        1.0     0.802167     0.186614     0.857513    Uiso  ? O
   O16        1.0     0.783101     0.218276     0.859770    Uiso  ? O
   O17        1.0     0.792216     0.882549     0.200653    Uiso  ? O
   O18        1.0     0.760554     0.896724     0.211648    Uiso  ? O
   O19        1.0     0.810036     0.886065     0.221019    Uiso  ? O
   O20        1.0     0.791411     0.896502     0.250358    Uiso  ? O
   O21        1.0     0.825822     0.138298     0.219983    Uiso  ? O
   O22        1.0     0.794474     0.153568     0.231382    Uiso  ? O
   O23        1.0     0.786210     0.137084     0.183349    Uiso  ? O
   O24        1.0     0.757755     0.124910     0.202387    Uiso  ? O
   O25        1.0     0.865545     0.157696     0.792065    Uiso  ? O
   O26        1.0     0.872616     0.168680     0.759010    Uiso  ? O
   O27        1.0     0.867940     0.181742     0.805357    Uiso  ? O
   O28        1.0     0.877372     0.212515     0.786899    Uiso  ? O
   O29        1.0     0.121273     0.191359     0.809821    Uiso  ? O
   O30        1.0     0.107911     0.217152     0.787360    Uiso  ? O
   O31        1.0     0.120586     0.147761     0.777938    Uiso  ? O
   O32        1.0     0.129902     0.177555     0.759236    Uiso  ? O
   O33        1.0     0.177815     0.213068     0.867313    Uiso  ? O
   O34        1.0     0.203344     0.233694     0.850567    Uiso  ? O
   O35        1.0     0.184658     0.217656     0.894068    Uiso  ? O
   O36        1.0     0.215695     0.236973     0.898400    Uiso  ? O
   O37        1.0     0.223756     0.188584     0.103210    Uiso  ? O
   O38        1.0     0.238829     0.222636     0.101699    Uiso  ? O
   O39        1.0     0.215246     0.180425     0.848564    Uiso  ? O
   O40        1.0     0.246259     0.195345     0.858080    Uiso  ? O
   O41        1.0     0.818169     0.837487     0.796820    Uiso  ? O
   O42        1.0     0.804709     0.845367     0.764775    Uiso  ? O
   O43        1.0     0.779874     0.845646     0.833949    Uiso  ? O
   O44        1.0     0.771094     0.825475     0.804734    Uiso  ? O
   O45        1.0     0.786884     0.889577     0.816052    Uiso  ? O
   O46        1.0     0.759713     0.880084     0.794512    Uiso  ? O
   O47        1.0     0.811347     0.888208     0.799171    Uiso  ? O
   O48        1.0     0.799143     0.872981     0.767779    Uiso  ? O
   O49        1.0     0.892071     0.185271     0.141649    Uiso  ? O
   O50        1.0     0.815477     0.152602     0.100093    Uiso  ? O
   O51        1.0     0.829656     0.114947     0.172803    Uiso  ? O
   O52        1.0     0.111343     0.144013     0.828447    Uiso  ? O
   O53        1.0     0.180099     0.161652     0.883770    Uiso  ? O
   O54        1.0     0.827660     0.858740     0.845108    Uiso  ? O
   Zn1        1.0     0.892994     0.210985     0.163701    Uiso  ? Zn
   Zn2        1.0     0.889755     0.256037     0.185869    Uiso  ? Zn
   Zn3        1.0     0.793072     0.174689     0.888662    Uiso  ? Zn
   Zn4        1.0     0.756519     0.207887     0.879847    Uiso  ? Zn
   Zn5        1.0     0.809081     0.117598     0.199800    Uiso  ? Zn
   Zn6        1.0     0.774817     0.125186     0.233689    Uiso  ? Zn
   Zn7        1.0     0.102415     0.164184     0.801768    Uiso  ? Zn
   Zn8        1.0     0.896837     0.194277     0.761546    Uiso  ? Zn
   Zn9        1.0     0.200849     0.189344     0.878359    Uiso  ? Zn
   Zn10       1.0     0.232622     0.225921     0.868355    Uiso  ? Zn
   Zn11       1.0     0.805581     0.859977     0.818516    Uiso  ? Zn
   Zn12       1.0     0.773531     0.851786     0.780415    Uiso  ? Zn
   C97        1.0     0.139648     0.749724     0.843749    Uiso  ? C
   C98        1.0     0.161256     0.743762     0.853948    Uiso  ? C
   C99        1.0     0.173071     0.724492     0.847049    Uiso  ? C
   H49        1.0     0.167506     0.713952     0.834151    Uiso  ? H
   C100       1.0     0.194301     0.719906     0.856394    Uiso  ? C
   H50        1.0     0.204078     0.705959     0.850065    Uiso  ? H
   C101       1.0     0.203226     0.733524     0.872739    Uiso  ? C
   H51        1.0     0.219394     0.729432     0.879843    Uiso  ? H
   C102       1.0     0.190537     0.751647     0.880463    Uiso  ? C
   C103       1.0     0.170058     0.757349     0.871028    Uiso  ? C
   H52        1.0     0.160471     0.770696     0.876968    Uiso  ? H
   C104       1.0     0.200150     0.766096     0.898190    Uiso  ? C
   C105       1.0     0.133232     0.776864     0.799826    Uiso  ? C
   C106       1.0     0.152021     0.784396     0.786626    Uiso  ? C
   C107       1.0     0.158758     0.772519     0.767719    Uiso  ? C
   H53        1.0     0.149590     0.758519     0.761194    Uiso  ? H
   C108       1.0     0.178390     0.778773     0.756785    Uiso  ? C
   H54        1.0     0.184807     0.768525     0.743542    Uiso  ? H
   C109       1.0     0.189624     0.797786     0.762831    Uiso  ? C
   H55        1.0     0.204108     0.802683     0.752995    Uiso  ? H
   C110       1.0     0.181563     0.810759     0.780016    Uiso  ? C
   C111       1.0     0.163294     0.804006     0.792240    Uiso  ? C
   H56        1.0     0.156731     0.813346     0.805805    Uiso  ? H
   C112       1.0     0.194087     0.831848     0.785343    Uiso  ? C
   C113       1.0     0.876474     0.778233     0.789994    Uiso  ? C
   C114       1.0     0.863815     0.791242     0.773403    Uiso  ? C
   C115       1.0     0.867628     0.790100     0.750391    Uiso  ? C
   H57        1.0     0.879667     0.778858     0.743289    Uiso  ? H
   C116       1.0     0.855521     0.802769     0.736230    Uiso  ? C
   H58        1.0     0.859102     0.801423     0.719051    Uiso  ? H
   C117       1.0     0.837785     0.816370     0.743501    Uiso  ? C
   H59        1.0     0.828118     0.825043     0.731032    Uiso  ? H
   C118       1.0     0.834147     0.818784     0.766544    Uiso  ? C
   C119       1.0     0.846747     0.805088     0.780902    Uiso  ? C
   H60        1.0     0.843345     0.805923     0.798673    Uiso  ? H
   C120       1.0     0.817330     0.833452     0.776607    Uiso  ? C
   C121       1.0     0.867099     0.740763     0.848868    Uiso  ? C
   C122       1.0     0.847431     0.733043     0.861165    Uiso  ? C
   C123       1.0     0.836197     0.714387     0.853854    Uiso  ? C
   H61        1.0     0.842172     0.703258     0.840901    Uiso  ? H
   C124       1.0     0.816481     0.708406     0.864182    Uiso  ? C
   H62        1.0     0.808322     0.693302     0.859017    Uiso  ? H
   C125       1.0     0.808957     0.720397     0.882439    Uiso  ? C
   H63        1.0     0.793366     0.715378     0.889895    Uiso  ? H
   C126       1.0     0.820063     0.739251     0.890049    Uiso  ? C
   C127       1.0     0.839828     0.745383     0.879242    Uiso  ? C
   H64        1.0     0.848503     0.761001     0.883448    Uiso  ? H
   C128       1.0     0.810195     0.754489     0.106130    Uiso  ? C
   C129       1.0     0.232653     0.819047     0.156648    Uiso  ? C
   C130       1.0     0.243236     0.836166     0.170533    Uiso  ? C
   C131       1.0     0.265651     0.834465     0.175155    Uiso  ? C
   H65        1.0     0.274778     0.819958     0.169993    Uiso  ? H
   C132       1.0     0.275908     0.850517     0.188180    Uiso  ? C
   H66        1.0     0.293594     0.850358     0.191107    Uiso  ? H
   C133       1.0     0.263672     0.868673     0.195727    Uiso  ? C
   H67        1.0     0.271741     0.881469     0.205276    Uiso  ? H
   C134       1.0     0.241567     0.871554     0.189330    Uiso  ? C
   C135       1.0     0.231217     0.855129     0.176803    Uiso  ? C
   H68        1.0     0.214407     0.856806     0.173019    Uiso  ? H
   C136       1.0     0.229951     0.891584     0.196057    Uiso  ? C
   C137       1.0     0.242421     0.801655     0.895351    Uiso  ? C
   C138       1.0     0.251196     0.807281     0.873136    Uiso  ? C
   C139       1.0     0.268197     0.794185     0.864018    Uiso  ? C
   H69        1.0     0.274593     0.780466     0.873515    Uiso  ? H
   C140       1.0     0.274297     0.796849     0.841570    Uiso  ? C
   H70        1.0     0.287019     0.786377     0.834647    Uiso  ? H
   C141       1.0     0.263788     0.813431     0.828746    Uiso  ? C
   H71        1.0     0.269018     0.815973     0.811747    Uiso  ? H
   C142       1.0     0.247099     0.826406     0.837518    Uiso  ? C
   C143       1.0     0.241146     0.823555     0.859596    Uiso  ? C
   H72        1.0     0.227520     0.832698     0.866087    Uiso  ? H
   C144       1.0     0.234675     0.841698     0.822717    Uiso  ? C
   C145       1.0     0.192860     0.776867     0.158274    Uiso  ? C
   C146       1.0     0.177748     0.767457     0.175279    Uiso  ? C
   C147       1.0     0.177000     0.744837     0.180626    Uiso  ? C
   H73        1.0     0.187374     0.733094     0.172007    Uiso  ? H
   C148       1.0     0.163166     0.737159     0.197693    Uiso  ? C
   H74        1.0     0.162076     0.720073     0.201647    Uiso  ? H
   C149       1.0     0.150445     0.752234     0.210147    Uiso  ? C
   H75        1.0     0.140013     0.745885     0.223423    Uiso  ? H
   C150       1.0     0.149671     0.774862     0.203687    Uiso  ? C
   C151       1.0     0.163111     0.782204     0.186630    Uiso  ? C
   H76        1.0     0.162837     0.799363     0.182658    Uiso  ? H
   C152       1.0     0.134572     0.790179     0.215184    Uiso  ? C
   C153       1.0     0.234492     0.106851     0.809289    Uiso  ? C
   C154       1.0     0.246781     0.126723     0.816841    Uiso  ? C
   C155       1.0     0.269835     0.127630     0.814206    Uiso  ? C
   H77        1.0     0.278219     0.114946     0.805134    Uiso  ? H
   C156       1.0     0.281944     0.144892     0.822535    Uiso  ? C
   H78        1.0     0.299729     0.144607     0.820523    Uiso  ? H
   C157       1.0     0.271330     0.162265     0.833676    Uiso  ? C
   H79        1.0     0.281317     0.175177     0.840159    Uiso  ? H
   C158       1.0     0.248050     0.162479     0.835440    Uiso  ? C
   C159       1.0     0.235931     0.144173     0.827480    Uiso  ? C
   H80        1.0     0.218120     0.143927     0.829870    Uiso  ? H
   C160       1.0     0.236181     0.180310     0.847578    Uiso  ? C
   C161       1.0     0.190866     0.897377     0.774002    Uiso  ? C
   C162       1.0     0.180381     0.116832     0.760023    Uiso  ? C
   C163       1.0     0.188460     0.121878     0.739215    Uiso  ? C
   H81        1.0     0.203303     0.113555     0.732717    Uiso  ? H
   C164       1.0     0.179106     0.138842     0.726179    Uiso  ? C
   H82        1.0     0.186405     0.143578     0.710495    Uiso  ? H
   C165       1.0     0.161094     0.150872     0.734102    Uiso  ? C
   H83        1.0     0.153936     0.163768     0.723506    Uiso  ? H
   C166       1.0     0.152158     0.145513     0.754981    Uiso  ? C
   C167       1.0     0.162079     0.129002     0.767437    Uiso  ? C
   H84        1.0     0.155229     0.124840     0.783706    Uiso  ? H
   C168       1.0     0.133189     0.157337     0.764414    Uiso  ? C
   C169       1.0     0.137772     0.849030     0.253226    Uiso  ? C
   C170       1.0     0.154470     0.864235     0.261119    Uiso  ? C
   C171       1.0     0.161444     0.863500     0.282985    Uiso  ? C
   H85        1.0     0.154023     0.851262     0.294690    Uiso  ? H
   C172       1.0     0.178833     0.877508     0.290182    Uiso  ? C
   H86        1.0     0.184697     0.876427     0.307156    Uiso  ? H
   C173       1.0     0.188741     0.891736     0.275402    Uiso  ? C
   H87        1.0     0.203220     0.106166     0.281143    Uiso  ? H
   C174       1.0     0.181239     0.892817     0.252983    Uiso  ? C
   C175       1.0     0.164935     0.878229     0.246392    Uiso  ? C
   H88        1.0     0.158711     0.878336     0.229649    Uiso  ? H
   C176       1.0     0.192898     0.110307     0.236827    Uiso  ? C
   C177       1.0     0.878903     0.791714     0.218738    Uiso  ? C
   C178       1.0     0.863900     0.775102     0.209266    Uiso  ? C
   C179       1.0     0.863893     0.753026     0.216443    Uiso  ? C
   H89        1.0     0.875896     0.747467     0.228950    Uiso  ? H
   C180       1.0     0.849161     0.737483     0.207919    Uiso  ? C
   H90        1.0     0.849432     0.721109     0.213395    Uiso  ? H
   C181       1.0     0.832784     0.743928     0.192914    Uiso  ? C
   H91        1.0     0.820738     0.732333     0.186201    Uiso  ? H
   C182       1.0     0.831522     0.766438     0.185524    Uiso  ? C
   C183       1.0     0.847598     0.781787     0.194052    Uiso  ? C
   H92        1.0     0.847496     0.798360     0.186750    Uiso  ? H
   C184       1.0     0.816010     0.773488     0.167831    Uiso  ? C
   C185       1.0     0.768582     0.788371     0.899068    Uiso  ? C
   C186       1.0     0.759205     0.792190     0.876444    Uiso  ? C
   C187       1.0     0.743962     0.777003     0.867470    Uiso  ? C
   H93        1.0     0.737423     0.763559     0.877016    Uiso  ? H
   C188       1.0     0.737018     0.778605     0.845269    Uiso  ? C
   H94        1.0     0.725087     0.767095     0.838352    Uiso  ? H
   C189       1.0     0.745642     0.795627     0.832026    Uiso  ? C
   H95        1.0     0.739773     0.798384     0.815528    Uiso  ? H
   C190       1.0     0.761138     0.810738     0.840676    Uiso  ? C
   C191       1.0     0.767344     0.808997     0.863145    Uiso  ? C
   H96        1.0     0.779618     0.820209     0.869902    Uiso  ? H
   C192       1.0     0.770938     0.828396     0.825861    Uiso  ? C
   O55        1.0     0.133269     0.769867     0.843427    Uiso  ? O
   O56        1.0     0.129078     0.734545     0.833479    Uiso  ? O
   O57        1.0     0.129617     0.784745     0.819162    Uiso  ? O
   O58        1.0     0.121077     0.761277     0.792629    Uiso  ? O
   O59        1.0     0.875995     0.784130     0.810279    Uiso  ? O
   O60        1.0     0.888984     0.762059     0.784349    Uiso  ? O
   O61        1.0     0.880192     0.754983     0.857981    Uiso  ? O
   O62        1.0     0.869750     0.735645     0.828635    Uiso  ? O
   O63        1.0     0.211895     0.817638     0.154692    Uiso  ? O
   O64        1.0     0.245114     0.804394     0.147154    Uiso  ? O
   O65        1.0     0.231509     0.816765     0.104932    Uiso  ? O
   O66        1.0     0.241006     0.782437     0.100238    Uiso  ? O
   O67        1.0     0.188432     0.781941     0.106445    Uiso  ? O
   O68        1.0     0.220620     0.765146     0.102056    Uiso  ? O
   O69        1.0     0.193960     0.797609     0.154281    Uiso  ? O
   O70        1.0     0.206050     0.764255     0.148208    Uiso  ? O
   O71        1.0     0.213108     0.106193     0.811526    Uiso  ? O
   O72        1.0     0.243748     0.887662     0.800110    Uiso  ? O
   O73        1.0     0.192091     0.103857     0.794889    Uiso  ? O
   O74        1.0     0.202649     0.882053     0.765335    Uiso  ? O
   O75        1.0     0.183869     0.848267     0.794519    Uiso  ? O
   O76        1.0     0.215436     0.832491     0.784111    Uiso  ? O
   O77        1.0     0.223746     0.856984     0.831836    Uiso  ? O
   O78        1.0     0.233234     0.837863     0.801727    Uiso  ? O
   O79        1.0     0.120324     0.856695     0.244047    Uiso  ? O
   O80        1.0     0.139854     0.828545     0.256827    Uiso  ? O
   O81        1.0     0.132361     0.809891     0.208772    Uiso  ? O
   O82        1.0     0.123410     0.783474     0.231453    Uiso  ? O
   O83        1.0     0.878089     0.812197     0.213331    Uiso  ? O
   O84        1.0     0.893577     0.785221     0.232723    Uiso  ? O
   O85        1.0     0.872339     0.834551     0.230794    Uiso  ? O
   O86        1.0     0.879242     0.820231     0.264325    Uiso  ? O
   O87        1.0     0.814528     0.793608     0.161554    Uiso  ? O
   O88        1.0     0.804571     0.758919     0.158637    Uiso  ? O
   O89        1.0     0.821302     0.769667     0.115087    Uiso  ? O
   O90        1.0     0.789719     0.752902     0.110878    Uiso  ? O
   O91        1.0     0.779639     0.804888     0.107328    Uiso  ? O
   O92        1.0     0.767956     0.770203     0.106602    Uiso  ? O
   O93        1.0     0.793667     0.811075     0.156988    Uiso  ? O
   O94        1.0     0.762784     0.792816     0.152815    Uiso  ? O
   O95        1.0     0.179534     0.151632     0.207761    Uiso  ? O
   O96        1.0     0.209422     0.166898     0.221772    Uiso  ? O
   O97        1.0     0.223926     0.147408     0.176459    Uiso  ? O
   O98        1.0     0.230490     0.166918     0.205554    Uiso  ? O
   O99        1.0     0.208462     0.892920     0.196009    Uiso  ? O
   O100       1.0     0.241729     0.111435     0.204127    Uiso  ? O
   O101       1.0     0.191963     0.105730     0.216096    Uiso  ? O
   O102       1.0     0.205699     0.125379     0.243616    Uiso  ? O
   O103       1.0     0.887847     0.804004     0.857805    Uiso  ? O
   O104       1.0     0.180134     0.834703     0.113113    Uiso  ? O
   O105       1.0     0.173193     0.872771     0.841544    Uiso  ? O
   O106       1.0     0.111616     0.856138     0.190972    Uiso  ? O
   O107       1.0     0.828354     0.821960     0.112362    Uiso  ? O
   O108       1.0     0.180717     0.124780     0.161532    Uiso  ? O
   Zn13       1.0     0.896707     0.778053     0.837581    Uiso  ? Zn
   Zn14       1.0     0.101817     0.738490     0.810848    Uiso  ? Zn
   Zn15       1.0     0.202496     0.809600     0.122031    Uiso  ? Zn
   Zn16       1.0     0.235382     0.774040     0.132921    Uiso  ? Zn
   Zn17       1.0     0.196648     0.871665     0.815327    Uiso  ? Zn
   Zn18       1.0     0.228113     0.864760     0.779193    Uiso  ? Zn
   Zn19       1.0     0.108679     0.835566     0.218149    Uiso  ? Zn
   Zn20       1.0     0.113189     0.806262     0.256372    Uiso  ? Zn
   Zn21       1.0     0.806956     0.799127     0.127921    Uiso  ? Zn
   Zn22       1.0     0.775868     0.764195     0.140575    Uiso  ? Zn
   Zn23       1.0     0.197661     0.128013     0.189958    Uiso  ? Zn
   Zn24       1.0     0.230315     0.138072     0.223502    Uiso  ? Zn
   H97        1.0     0.177777     0.839883     0.899792    Uiso  ? H
   H98        1.0     0.169620     0.838636     0.124005    Uiso  ? H
   H99        1.0     0.814363     0.146629     0.115345    Uiso  ? H
   H100       1.0     0.828399     0.149692     0.891646    Uiso  ? H
   H101       1.0     0.835869     0.871371     0.851211    Uiso  ? H
   H102       1.0     0.826213     0.845945     0.855145    Uiso  ? H
   H103       1.0     0.897522     0.140392     0.839294    Uiso  ? H
   H104       1.0     0.125234     0.135962     0.827886    Uiso  ? H
   H105       1.0     0.187458     0.121734     0.147404    Uiso  ? H
   H106       1.0     0.165287     0.128841     0.161946    Uiso  ? H
   H107       1.0     0.880974     0.173945     0.143134    Uiso  ? H
   H108       1.0     0.107638     0.183270     0.131925    Uiso  ? H
   H109       1.0     0.185163     0.149054     0.892901    Uiso  ? H
   H110       1.0     0.164471     0.161559     0.878894    Uiso  ? H
   H111       1.0     0.104826     0.850065     0.177730    Uiso  ? H
   H112       1.0     0.120445     0.869706     0.190356    Uiso  ? H
   H113       1.0     0.843226     0.123697     0.171657    Uiso  ? H
   H114       1.0     0.825880     0.104047     0.162035    Uiso  ? H
   H115       1.0     0.823107     0.836206     0.107915    Uiso  ? H
   H116       1.0     0.841870     0.817136     0.106220    Uiso  ? H
   H117       1.0     0.172955     0.884189     0.852947    Uiso  ? H
   H118       1.0     0.162210     0.861155     0.841613    Uiso  ? H
   H119       1.0     0.872333     0.807024     0.860332    Uiso  ? H
   H120       1.0     0.102230     0.814262     0.862220    Uiso  ? H
   C193       1.0     0.849890     0.368472     0.417210    Uiso  ? C
   C194       1.0     0.835528     0.357260     0.433458    Uiso  ? C
   C195       1.0     0.830486     0.334147     0.431621    Uiso  ? C
   H121       1.0     0.838476     0.324846     0.418617    Uiso  ? H
   C196       1.0     0.814523     0.324198     0.445591    Uiso  ? C
   H122       1.0     0.810622     0.306374     0.444054    Uiso  ? H
   C197       1.0     0.804971     0.337009     0.462190    Uiso  ? C
   H123       1.0     0.792965     0.328877     0.473637    Uiso  ? H
   C198       1.0     0.810298     0.359492     0.464731    Uiso  ? C
   C199       1.0     0.825152     0.369635     0.450077    Uiso  ? C
   H124       1.0     0.828649     0.387465     0.451697    Uiso  ? H
   C200       1.0     0.801378     0.372161     0.483656    Uiso  ? C
   C201       1.0     0.836143     0.406787     0.380007    Uiso  ? C
   C202       1.0     0.814360     0.416632     0.376326    Uiso  ? C
   C203       1.0     0.801390     0.408347     0.358759    Uiso  ? C
   H125       1.0     0.808747     0.395700     0.349354    Uiso  ? H
   C204       1.0     0.780663     0.417806     0.354090    Uiso  ? C
   H126       1.0     0.770194     0.411844     0.340991    Uiso  ? H
   C205       1.0     0.772897     0.435021     0.367382    Uiso  ? C
   H127       1.0     0.756448     0.441409     0.363934    Uiso  ? H
   C206       1.0     0.785933     0.443382     0.384312    Uiso  ? C
   C207       1.0     0.806634     0.433955     0.389572    Uiso  ? C
   H128       1.0     0.817223     0.440673     0.402560    Uiso  ? H
   C208       1.0     0.777437     0.463321     0.396825    Uiso  ? C
   C209       1.0     0.103166     0.406577     0.358694    Uiso  ? C
   C210       1.0     0.118675     0.417367     0.342650    Uiso  ? C
   C211       1.0     0.123895     0.407365     0.322860    Uiso  ? C
   H129       1.0     0.114859     0.392628     0.317818    Uiso  ? H
   C212       1.0     0.140286     0.416002     0.309495    Uiso  ? C
   H130       1.0     0.145116     0.407211     0.294791    Uiso  ? H
   C213       1.0     0.150809     0.435348     0.314972    Uiso  ? C
   H131       1.0     0.163399     0.441183     0.303499    Uiso  ? H
   C214       1.0     0.145139     0.446427     0.334648    Uiso  ? C
   C215       1.0     0.129424     0.436788     0.348892    Uiso  ? C
   H132       1.0     0.124814     0.444565     0.364616    Uiso  ? H
   C216       1.0     0.155919     0.467524     0.340578    Uiso  ? C
   C217       1.0     0.113573     0.369600     0.396600    Uiso  ? C
   C218       1.0     0.135691     0.359793     0.401439    Uiso  ? C
   C219       1.0     0.144144     0.343578     0.387746    Uiso  ? C
   H133       1.0     0.132990     0.336159     0.374893    Uiso  ? H
   C220       1.0     0.166771     0.337756     0.388713    Uiso  ? C
   H134       1.0     0.172473     0.326436     0.376064    Uiso  ? H
   C221       1.0     0.180283     0.346646     0.404976    Uiso  ? C
   H135       1.0     0.196942     0.340418     0.406295    Uiso  ? H
   C222       1.0     0.171545     0.362653     0.419463    Uiso  ? C
   C223       1.0     0.148848     0.368552     0.417999    Uiso  ? C
   H136       1.0     0.142561     0.381369     0.427657    Uiso  ? H
   C224       1.0     0.186212     0.374510     0.435502    Uiso  ? C
   C225       1.0     0.776505     0.419882     0.548204    Uiso  ? C
   C226       1.0     0.768331     0.435757     0.565476    Uiso  ? C
   C227       1.0     0.745771     0.435436     0.572831    Uiso  ? C
   H137       1.0     0.733651     0.423893     0.565699    Uiso  ? H
   C228       1.0     0.739363     0.449396     0.589997    Uiso  ? C
   H138       1.0     0.722607     0.450085     0.595526    Uiso  ? H
   C229       1.0     0.754545     0.463429     0.599839    Uiso  ? C
   H139       1.0     0.749302     0.472915     0.613503    Uiso  ? H
   C230       1.0     0.776386     0.464100     0.592568    Uiso  ? C
   C231       1.0     0.783110     0.450901     0.574990    Uiso  ? C
   H140       1.0     0.799766     0.451006     0.569361    Uiso  ? H
   C232       1.0     0.793289     0.477490     0.604037    Uiso  ? C
   C233       1.0     0.765898     0.412019     0.498964    Uiso  ? C
   C234       1.0     0.750420     0.426011     0.485792    Uiso  ? C
   C235       1.0     0.727788     0.423218     0.487528    Uiso  ? C
   H141       1.0     0.721413     0.410663     0.498517    Uiso  ? H
   C236       1.0     0.713202     0.436324     0.474998    Uiso  ? C
   H142       1.0     0.695493     0.434705     0.477169    Uiso  ? H
   C237       1.0     0.721308     0.451163     0.459996    Uiso  ? C
   H143       1.0     0.709020     0.460228     0.450429    Uiso  ? H
   C238       1.0     0.743883     0.454829     0.458041    Uiso  ? C
   C239       1.0     0.758451     0.443092     0.472060    Uiso  ? C
   H144       1.0     0.775784     0.446480     0.470218    Uiso  ? H
   C240       1.0     0.752204     0.471581     0.442392    Uiso  ? C
   C241       1.0     0.814543     0.367105     0.551686    Uiso  ? C
   C242       1.0     0.828745     0.358039     0.569560    Uiso  ? C
   C243       1.0     0.821050     0.340483     0.583439    Uiso  ? C
   H145       1.0     0.804331     0.333792     0.582273    Uiso  ? H
   C244       1.0     0.834708     0.331894     0.600328    Uiso  ? C
   H146       1.0     0.827362     0.319071     0.611301    Uiso  ? H
   C245       1.0     0.855752     0.340668     0.603794    Uiso  ? C
   H147       1.0     0.866247     0.333969     0.616515    Uiso  ? H
   C246       1.0     0.864029     0.357131     0.589567    Uiso  ? C
   C247       1.0     0.850447     0.364749     0.572651    Uiso  ? C
   H148       1.0     0.856572     0.377504     0.561940    Uiso  ? H
   C248       1.0     0.886273     0.366622     0.592523    Uiso  ? C
   C249       1.0     0.748849     0.523189     0.447792    Uiso  ? C
   C250       1.0     0.739951     0.537764     0.465641    Uiso  ? C
   C251       1.0     0.717513     0.537191     0.472869    Uiso  ? C
   H149       1.0     0.705980     0.525403     0.464778    Uiso  ? H
   C252       1.0     0.709426     0.551121     0.488963    Uiso  ? C
   H150       1.0     0.693136     0.548183     0.495523    Uiso  ? H
   C253       1.0     0.724247     0.566283     0.499309    Uiso  ? C
   H151       1.0     0.718811     0.576304     0.513567    Uiso  ? H
   C254       1.0     0.746412     0.567882     0.491965    Uiso  ? C
   C255       1.0     0.753817     0.553963     0.475565    Uiso  ? C
   H152       1.0     0.770871     0.554191     0.471718    Uiso  ? H
   C256       1.0     0.761508     0.584861     0.501887    Uiso  ? C
   C257       1.0     0.778375     0.533193     0.388253    Uiso  ? C
   C258       1.0     0.785709     0.551143     0.374093    Uiso  ? C
   C259       1.0     0.772640     0.559439     0.356747    Uiso  ? C
   H153       1.0     0.757873     0.550946     0.351494    Uiso  ? H
   C260       1.0     0.780980     0.576816     0.343830    Uiso  ? C
   H154       1.0     0.771061     0.582943     0.329825    Uiso  ? H
   C261       1.0     0.801024     0.587190     0.349213    Uiso  ? C
   H155       1.0     0.807884     0.600210     0.339318    Uiso  ? H
   C262       1.0     0.813472     0.579833     0.367214    Uiso  ? C
   C263       1.0     0.806315     0.561530     0.379560    Uiso  ? C
   H156       1.0     0.815562     0.555190     0.394011    Uiso  ? H
   C264       1.0     0.833385     0.591514     0.374028    Uiso  ? C
   C265       1.0     0.896647     0.408108     0.626309    Uiso  ? C
   C266       1.0     0.880379     0.418199     0.642141    Uiso  ? C
   C267       1.0     0.874469     0.406998     0.662021    Uiso  ? C
   H157       1.0     0.882457     0.392297     0.666591    Uiso  ? H
   C268       1.0     0.860558     0.417055     0.677274    Uiso  ? C
   H158       1.0     0.856066     0.407496     0.692160    Uiso  ? H
   C269       1.0     0.850642     0.437304     0.672081    Uiso  ? C
   H159       1.0     0.837527     0.442808     0.683053    Uiso  ? H
   C270       1.0     0.855281     0.447614     0.652084    Uiso  ? C
   C271       1.0     0.870450     0.438534     0.637613    Uiso  ? C
   H160       1.0     0.874689     0.446612     0.621594    Uiso  ? H
   C272       1.0     0.843556     0.467327     0.645595    Uiso  ? C
   C273       1.0     0.156994     0.375335     0.573274    Uiso  ? C
   C274       1.0     0.175516     0.367758     0.558775    Uiso  ? C
   C275       1.0     0.184012     0.346507     0.561979    Uiso  ? C
   H161       1.0     0.179057     0.336171     0.575706    Uiso  ? H
   C276       1.0     0.199105     0.337584     0.546874    Uiso  ? C
   H162       1.0     0.206304     0.321535     0.549305    Uiso  ? H
   C277       1.0     0.206334     0.349895     0.528615    Uiso  ? C
   H163       1.0     0.215967     0.341117     0.516872    Uiso  ? H
   C278       1.0     0.197370     0.371233     0.524586    Uiso  ? C
   C279       1.0     0.182600     0.380209     0.539955    Uiso  ? C
   H164       1.0     0.174399     0.395783     0.535616    Uiso  ? H
   C280       1.0     0.201852     0.381971     0.502935    Uiso  ? C
   C281       1.0     0.226657     0.429712     0.436639    Uiso  ? C
   C282       1.0     0.235037     0.445514     0.419730    Uiso  ? C
   C283       1.0     0.256545     0.444157     0.411944    Uiso  ? C
   H165       1.0     0.267797     0.431566     0.418428    Uiso  ? H
   C284       1.0     0.264150     0.458410     0.394909    Uiso  ? C
   H166       1.0     0.281005     0.457056     0.389556    Uiso  ? H
   C285       1.0     0.249424     0.471999     0.384130    Uiso  ? C
   H167       1.0     0.255487     0.481296     0.370051    Uiso  ? H
   C286       1.0     0.227199     0.473193     0.390945    Uiso  ? C
   C287       1.0     0.220451     0.460645     0.409535    Uiso  ? C
   H168       1.0     0.203173     0.460820     0.414494    Uiso  ? H
   C288       1.0     0.210210     0.484710     0.377963    Uiso  ? C
   O109       1.0     0.851006     0.389609     0.416914    Uiso  ? O
   O110       1.0     0.858679     0.356923     0.402145    Uiso  ? O
   O111       1.0     0.844877     0.407939     0.399069    Uiso  ? O
   O112       1.0     0.845024     0.394837     0.365005    Uiso  ? O
   O113       1.0     0.890332     0.418224     0.373086    Uiso  ? O
   O114       1.0     0.896932     0.385549     0.358670    Uiso  ? O
   O115       1.0     0.103384     0.380399     0.411744    Uiso  ? O
   O116       1.0     0.105341     0.367994     0.376756    Uiso  ? O
   O117       1.0     0.795574     0.423065     0.540379    Uiso  ? O
   O118       1.0     0.764324     0.403801     0.542238    Uiso  ? O
   O119       1.0     0.786289     0.411449     0.494978    Uiso  ? O
   O120       1.0     0.757592     0.400073     0.514430    Uiso  ? O
   O121       1.0     0.804101     0.392560     0.485837    Uiso  ? O
   O122       1.0     0.792297     0.361467     0.499422    Uiso  ? O
   O123       1.0     0.823782     0.376393     0.535337    Uiso  ? O
   O124       1.0     0.793697     0.366397     0.553353    Uiso  ? O
   O125       1.0     0.769565     0.522611     0.445241    Uiso  ? O
   O126       1.0     0.736164     0.512023     0.434910    Uiso  ? O
   O127       1.0     0.791758     0.518671     0.395220    Uiso  ? O
   O128       1.0     0.758294     0.531533     0.392023    Uiso  ? O
   O129       1.0     0.786433     0.468346     0.414965    Uiso  ? O
   O130       1.0     0.762895     0.475613     0.388344    Uiso  ? O
   O131       1.0     0.773091     0.472672     0.438175    Uiso  ? O
   O132       1.0     0.738784     0.485045     0.433032    Uiso  ? O
   O133       1.0     0.107760     0.419624     0.610921    Uiso  ? O
   O134       1.0     0.104353     0.387784     0.628207    Uiso  ? O
   O135       1.0     0.895507     0.377466     0.577206    Uiso  ? O
   O136       1.0     0.894453     0.366958     0.611509    Uiso  ? O
   O137       1.0     0.152717     0.396158     0.574599    Uiso  ? O
   O138       1.0     0.145921     0.361661     0.585130    Uiso  ? O
   O139       1.0     0.151030     0.410186     0.597981    Uiso  ? O
   O140       1.0     0.149677     0.392967     0.630922    Uiso  ? O
   O141       1.0     0.195820     0.402014     0.499038    Uiso  ? O
   O142       1.0     0.212849     0.372081     0.487632    Uiso  ? O
   O143       1.0     0.177014     0.383629     0.451975    Uiso  ? O
   O144       1.0     0.206724     0.377120     0.432268    Uiso  ? O
   O145       1.0     0.206984     0.432219     0.443839    Uiso  ? O
   O146       1.0     0.239170     0.413891     0.443961    Uiso  ? O
   O147       1.0     0.214156     0.420884     0.491218    Uiso  ? O
   O148       1.0     0.243380     0.409686     0.472078    Uiso  ? O
   O149       1.0     0.837170     0.536103     0.617279    Uiso  ? O
   O150       1.0     0.828816     0.528774     0.651593    Uiso  ? O
   O151       1.0     0.812181     0.527051     0.603918    Uiso  ? O
   O152       1.0     0.786077     0.513842     0.625544    Uiso  ? O
   O153       1.0     0.810994     0.483096     0.594429    Uiso  ? O
   O154       1.0     0.789483     0.484010     0.624021    Uiso  ? O
   O155       1.0     0.851378     0.480471     0.631443    Uiso  ? O
   O156       1.0     0.823960     0.470943     0.651913    Uiso  ? O
   O157       1.0     0.892377     0.429330     0.424549    Uiso  ? O
   O158       1.0     0.841124     0.418472     0.513197    Uiso  ? O
   O159       1.0     0.819792     0.509902     0.440481    Uiso  ? O
   O160       1.0     0.112783     0.426117     0.557198    Uiso  ? O
   O161       1.0     0.159992     0.428800     0.467887    Uiso  ? O
   O162       1.0     0.860347     0.498214     0.583736    Uiso  ? O
   Zn25       1.0     0.878855     0.405876     0.403088    Uiso  ? Zn
   Zn26       1.0     0.867793     0.370096     0.371013    Uiso  ? Zn
   Zn27       1.0     0.811901     0.403017     0.518095    Uiso  ? Zn
   Zn28       1.0     0.772278     0.371412     0.527307    Uiso  ? Zn
   Zn29       1.0     0.788780     0.502140     0.425387    Uiso  ? Zn
   Zn30       1.0     0.744175     0.501168     0.402127    Uiso  ? Zn
   Zn31       1.0     0.119880     0.405191     0.583439    Uiso  ? Zn
   Zn32       1.0     0.131315     0.368975     0.616253    Uiso  ? Zn
   Zn33       1.0     0.189882     0.411961     0.466791    Uiso  ? Zn
   Zn34       1.0     0.228126     0.382614     0.457688    Uiso  ? Zn
   Zn35       1.0     0.836295     0.501472     0.607637    Uiso  ? Zn
   Zn36       1.0     0.808343     0.500803     0.649126    Uiso  ? Zn
   C289       1.0     0.141136     0.641994     0.563652    Uiso  ? C
   C290       1.0     0.151366     0.653230     0.544475    Uiso  ? C
   C291       1.0     0.148630     0.675628     0.540477    Uiso  ? C
   H169       1.0     0.138620     0.685617     0.551402    Uiso  ? H
   C292       1.0     0.158217     0.685473     0.521681    Uiso  ? C
   H170       1.0     0.157914     0.703567     0.520241    Uiso  ? H
   C293       1.0     0.171043     0.673386     0.507263    Uiso  ? C
   H171       1.0     0.178055     0.681835     0.492289    Uiso  ? H
   C294       1.0     0.173570     0.650928     0.510766    Uiso  ? C
   C295       1.0     0.164082     0.641123     0.529346    Uiso  ? C
   H172       1.0     0.165860     0.623734     0.531766    Uiso  ? H
   C296       1.0     0.186247     0.637054     0.495244    Uiso  ? C
   C297       1.0     0.164650     0.598006     0.611377    Uiso  ? C
   C298       1.0     0.186498     0.588382     0.615216    Uiso  ? C
   C299       1.0     0.202190     0.599904     0.628460    Uiso  ? C
   H173       1.0     0.198602     0.615800     0.636452    Uiso  ? H
   C300       1.0     0.222733     0.590049     0.633172    Uiso  ? C
   H174       1.0     0.234515     0.598588     0.643931    Uiso  ? H
   C301       1.0     0.228129     0.569137     0.623914    Uiso  ? C
   H175       1.0     0.244051     0.560854     0.628217    Uiso  ? H
   C302       1.0     0.212636     0.558260     0.610322    Uiso  ? C
   C303       1.0     0.191596     0.567603     0.606789    Uiso  ? C
   H176       1.0     0.179584     0.558825     0.596537    Uiso  ? H
   C304       1.0     0.217840     0.537194     0.600089    Uiso  ? C
   C305       1.0     0.890729     0.602209     0.622229    Uiso  ? C
   C306       1.0     0.873360     0.593099     0.636490    Uiso  ? C
   C307       1.0     0.868891     0.601471     0.657250    Uiso  ? C
   H177       1.0     0.876213     0.616800     0.663089    Uiso  ? H
   C308       1.0     0.853626     0.590905     0.671301    Uiso  ? C
   H178       1.0     0.850085     0.598307     0.687564    Uiso  ? H
   C309       1.0     0.842930     0.571607     0.664572    Uiso  ? C
   H179       1.0     0.830244     0.564546     0.674072    Uiso  ? H
   C310       1.0     0.847696     0.562692     0.644067    Uiso  ? C
   C311       1.0     0.862446     0.573439     0.629770    Uiso  ? C
   H180       1.0     0.866067     0.566649     0.613396    Uiso  ? H
   C312       1.0     0.837356     0.541466     0.637398    Uiso  ? C
   C313       1.0     0.890016     0.637461     0.582314    Uiso  ? C
   C314       1.0     0.870299     0.648416     0.574093    Uiso  ? C
   C315       1.0     0.864847     0.669819     0.582240    Uiso  ? C
   H181       1.0     0.876516     0.679016     0.593198    Uiso  ? H
   C316       1.0     0.844221     0.679136     0.578152    Uiso  ? C
   H182       1.0     0.840258     0.695152     0.583275    Uiso  ? H
   C317       1.0     0.829065     0.667818     0.565339    Uiso  ? C
   H183       1.0     0.813267     0.675704     0.561463    Uiso  ? H
   C318       1.0     0.834276     0.647129     0.555828    Uiso  ? C
   C319       1.0     0.855423     0.637879     0.560093    Uiso  ? C
   H184       1.0     0.858983     0.621380     0.553854    Uiso  ? H
   C320       1.0     0.817822     0.635208     0.542358    Uiso  ? C
   C321       1.0     0.212645     0.591355     0.427206    Uiso  ? C
   C322       1.0     0.217151     0.582497     0.405106    Uiso  ? C
   C323       1.0     0.231648     0.593790     0.390397    Uiso  ? C
   H185       1.0     0.240566     0.609235     0.394631    Uiso  ? H
   C324       1.0     0.235170     0.585937     0.369093    Uiso  ? C
   H186       1.0     0.245558     0.595495     0.357752    Uiso  ? H
   C325       1.0     0.224857     0.566658     0.361975    Uiso  ? C
   H187       1.0     0.227972     0.560277     0.345596    Uiso  ? H
   C326       1.0     0.210142     0.555520     0.376555    Uiso  ? C
   C327       1.0     0.208015     0.562730     0.398713    Uiso  ? C
   H188       1.0     0.196065     0.554335     0.409206    Uiso  ? H
   C328       1.0     0.198755     0.535481     0.369155    Uiso  ? C
   C329       1.0     0.230388     0.585645     0.494416    Uiso  ? C
   C330       1.0     0.245011     0.573612     0.509754    Uiso  ? C
   C331       1.0     0.266504     0.581758     0.513064    Uiso  ? C
   H189       1.0     0.271320     0.596373     0.504540    Uiso  ? H
   C332       1.0     0.280335     0.571380     0.528126    Uiso  ? C
   H190       1.0     0.297491     0.577186     0.530347    Uiso  ? H
   C333       1.0     0.272084     0.554117     0.541917    Uiso  ? C
   H191       1.0     0.283132     0.547891     0.554455    Uiso  ? H
   C334       1.0     0.250452     0.546542     0.539121    Uiso  ? C
   C335       1.0     0.236759     0.555641     0.522607    Uiso  ? C
   H192       1.0     0.220621     0.549518     0.520869    Uiso  ? H
   C336       1.0     0.242470     0.528053     0.553653    Uiso  ? C
   C337       1.0     0.178224     0.628669     0.442093    Uiso  ? C
   C338       1.0     0.163021     0.640865     0.427480    Uiso  ? C
   C339       1.0     0.169838     0.661412     0.417699    Uiso  ? C
   H193       1.0     0.186376     0.668040     0.420609    Uiso  ? H
   C340       1.0     0.156492     0.671940     0.402506    Uiso  ? C
   H194       1.0     0.162261     0.687026     0.395063    Uiso  ? H
   C341       1.0     0.135649     0.663232     0.396795    Uiso  ? C
   H195       1.0     0.126084     0.672879     0.384970    Uiso  ? H
   C342       1.0     0.128994     0.643166     0.406004    Uiso  ? C
   C343       1.0     0.142488     0.632275     0.421451    Uiso  ? C
   H196       1.0     0.138697     0.615645     0.428421    Uiso  ? H
   C344       1.0     0.108079     0.633454     0.398680    Uiso  ? C
   C345       1.0     0.245093     0.476442     0.548699    Uiso  ? C
   C346       1.0     0.254708     0.462622     0.531027    Uiso  ? C
   C347       1.0     0.277812     0.463520     0.526803    Uiso  ? C
   H197       1.0     0.288734     0.473676     0.535663    Uiso  ? H
   C348       1.0     0.286498     0.449156     0.510578    Uiso  ? C
   H198       1.0     0.304679     0.448827     0.507524    Uiso  ? H
   C349       1.0     0.273051     0.435333     0.497796    Uiso  ? C
   H199       1.0     0.280930     0.422767     0.486949    Uiso  ? H
   C350       1.0     0.250375     0.435185     0.502158    Uiso  ? C
   C351       1.0     0.241176     0.448492     0.518141    Uiso  ? C
   H200       1.0     0.223659     0.448442     0.521506    Uiso  ? H
   C352       1.0     0.235319     0.421043     0.488477    Uiso  ? C
   C353       1.0     0.213402     0.468552     0.605996    Uiso  ? C
   C354       1.0     0.205264     0.449436     0.618990    Uiso  ? C
   C355       1.0     0.218545     0.442062     0.636715    Uiso  ? C
   H201       1.0     0.233022     0.450666     0.642458    Uiso  ? H
   C356       1.0     0.212276     0.423005     0.648594    Uiso  ? C
   H202       1.0     0.221763     0.417267     0.662600    Uiso  ? H
   C357       1.0     0.192543     0.411594     0.642715    Uiso  ? C
   H203       1.0     0.186483     0.397452     0.652760    Uiso  ? H
   C358       1.0     0.178897     0.419847     0.625755    Uiso  ? C
   C359       1.0     0.184976     0.439584     0.614626    Uiso  ? C
   H204       1.0     0.174310     0.445385     0.600988    Uiso  ? H
   C360       1.0     0.158029     0.407464     0.618073    Uiso  ? C
   C361       1.0     0.898183     0.598039     0.356067    Uiso  ? C
   C362       1.0     0.118003     0.588078     0.341692    Uiso  ? C
   C363       1.0     0.126734     0.600223     0.323925    Uiso  ? C
   H205       1.0     0.119429     0.615324     0.319583    Uiso  ? H
   C364       1.0     0.143520     0.591087     0.310632    Uiso  ? C
   H206       1.0     0.149761     0.600339     0.297081    Uiso  ? H
   C365       1.0     0.152191     0.570479     0.315863    Uiso  ? C
   H207       1.0     0.165958     0.564070     0.306134    Uiso  ? H
   C366       1.0     0.144771     0.558675     0.334205    Uiso  ? C
   C367       1.0     0.127709     0.567941     0.346842    Uiso  ? C
   H208       1.0     0.121558     0.557972     0.360725    Uiso  ? H
   C368       1.0     0.155060     0.537141     0.340327    Uiso  ? C
   C369       1.0     0.840625     0.629433     0.411627    Uiso  ? C
   C370       1.0     0.822826     0.638263     0.426181    Uiso  ? C
   C371       1.0     0.813454     0.659234     0.421904    Uiso  ? C
   H209       1.0     0.819498     0.668491     0.407436    Uiso  ? H
   C372       1.0     0.796471     0.667359     0.435240    Uiso  ? C
   H210       1.0     0.788541     0.682967     0.431190    Uiso  ? H
   C373       1.0     0.789538     0.655414     0.453752    Uiso  ? C
   H211       1.0     0.776994     0.663049     0.464384    Uiso  ? H
   C374       1.0     0.799242     0.634951     0.458837    Uiso  ? C
   C375       1.0     0.815464     0.626093     0.444418    Uiso  ? C
   H212       1.0     0.823737     0.611006     0.448286    Uiso  ? H
   C376       1.0     0.793542     0.623949     0.480026    Uiso  ? C
   C377       1.0     0.773918     0.583942     0.552377    Uiso  ? C
   C378       1.0     0.766810     0.567938     0.570057    Uiso  ? C
   C379       1.0     0.743883     0.565939     0.575901    Uiso  ? C
   H213       1.0     0.731025     0.576282     0.568579    Uiso  ? H
   C380       1.0     0.737757     0.550817     0.592594    Uiso  ? C
   H214       1.0     0.719949     0.549727     0.596604    Uiso  ? H
   C381       1.0     0.753424     0.538975     0.604093    Uiso  ? C
   H215       1.0     0.748158     0.527020     0.616383    Uiso  ? H
   C382       1.0     0.775830     0.541116     0.599102    Uiso  ? C
   C383       1.0     0.782470     0.556111     0.582262    Uiso  ? C
   H216       1.0     0.800421     0.558229     0.578312    Uiso  ? H
   C384       1.0     0.792284     0.527225     0.610329    Uiso  ? C
   O163       1.0     0.138642     0.621120     0.562930    Uiso  ? O
   O164       1.0     0.135808     0.652574     0.581263    Uiso  ? O
   O165       1.0     0.148601     0.586362     0.605748    Uiso  ? O
   O166       1.0     0.162475     0.618850     0.611704    Uiso  ? O
   O167       1.0     0.892456     0.596202     0.602569    Uiso  ? O
   O168       1.0     0.107828     0.616508     0.629705    Uiso  ? O
   O169       1.0     0.891347     0.616699     0.581699    Uiso  ? O
   O170       1.0     0.109031     0.649203     0.590698    Uiso  ? O
   O171       1.0     0.194991     0.586544     0.437717    Uiso  ? O
   O172       1.0     0.226028     0.605477     0.435338    Uiso  ? O
   O173       1.0     0.216601     0.574738     0.482945    Uiso  ? O
   O174       1.0     0.231945     0.606578     0.492061    Uiso  ? O
   O175       1.0     0.183488     0.615706     0.495467    Uiso  ? O
   O176       1.0     0.196748     0.645658     0.478670    Uiso  ? O
   O177       1.0     0.177514     0.607206     0.443535    Uiso  ? O
   O178       1.0     0.191987     0.639073     0.454033    Uiso  ? O
   O179       1.0     0.223619     0.476533     0.551036    Uiso  ? O
   O180       1.0     0.257517     0.488086     0.561176    Uiso  ? O
   O181       1.0     0.199131     0.480927     0.596780    Uiso  ? O
   O182       1.0     0.233670     0.471219     0.602788    Uiso  ? O
   O183       1.0     0.208814     0.532046     0.581233    Uiso  ? O
   O184       1.0     0.232332     0.524626     0.607927    Uiso  ? O
   O185       1.0     0.221774     0.526712     0.557096    Uiso  ? O
   O186       1.0     0.256411     0.515219     0.563251    Uiso  ? O
   O187       1.0     0.886288     0.585319     0.367954    Uiso  ? O
   O188       1.0     0.895753     0.618759     0.357489    Uiso  ? O
   O189       1.0     0.895032     0.619981     0.411514    Uiso  ? O
   O190       1.0     0.897699     0.635950     0.378816    Uiso  ? O
   O191       1.0     0.843799     0.608463     0.411437    Uiso  ? O
   O192       1.0     0.850092     0.641902     0.397637    Uiso  ? O
   O193       1.0     0.840693     0.590108     0.393585    Uiso  ? O
   O194       1.0     0.843659     0.602419     0.359473    Uiso  ? O
   O195       1.0     0.798778     0.603587     0.483329    Uiso  ? O
   O196       1.0     0.784474     0.635218     0.495176    Uiso  ? O
   O197       1.0     0.824360     0.623646     0.526507    Uiso  ? O
   O198       1.0     0.797505     0.634727     0.547287    Uiso  ? O
   O199       1.0     0.793532     0.582599     0.544903    Uiso  ? O
   O200       1.0     0.760789     0.597586     0.543608    Uiso  ? O
   O201       1.0     0.781554     0.585716     0.495614    Uiso  ? O
   O202       1.0     0.754336     0.597922     0.516629    Uiso  ? O
   O203       1.0     0.157823     0.472836     0.360672    Uiso  ? O
   O204       1.0     0.164492     0.480086     0.325646    Uiso  ? O
   O205       1.0     0.195321     0.495927     0.387671    Uiso  ? O
   O206       1.0     0.209865     0.484394     0.357040    Uiso  ? O
   O207       1.0     0.189965     0.522948     0.383462    Uiso  ? O
   O208       1.0     0.198193     0.530768     0.348904    Uiso  ? O
   O209       1.0     0.147976     0.527093     0.357043    Uiso  ? O
   O210       1.0     0.173424     0.531191     0.331292    Uiso  ? O
   O211       1.0     0.126038     0.573776     0.560597    Uiso  ? O
   O212       1.0     0.163045     0.570473     0.484136    Uiso  ? O
   O213       1.0     0.173416     0.493462     0.551899    Uiso  ? O
   O214       1.0     0.886533     0.569079     0.417855    Uiso  ? O
   O215       1.0     0.834445     0.573240     0.513228    Uiso  ? O
   O216       1.0     0.141863     0.502082     0.402066    Uiso  ? O
   Zn37       1.0     0.124725     0.598535     0.583640    Uiso  ? Zn
   Zn38       1.0     0.132855     0.636013     0.612824    Uiso  ? Zn
   Zn39       1.0     0.189086     0.589343     0.472788    Uiso  ? Zn
   Zn40       1.0     0.221802     0.625255     0.464553    Uiso  ? Zn
   Zn41       1.0     0.204339     0.498128     0.568320    Uiso  ? Zn
   Zn42       1.0     0.249165     0.498214     0.593985    Uiso  ? Zn
   Zn43       1.0     0.874454     0.595144     0.399644    Uiso  ? Zn
   Zn44       1.0     0.864725     0.629620     0.368429    Uiso  ? Zn
   Zn45       1.0     0.808745     0.595379     0.516235    Uiso  ? Zn
   Zn46       1.0     0.770919     0.627578     0.526978    Uiso  ? Zn
   Zn47       1.0     0.163503     0.502734     0.375612    Uiso  ? Zn
   Zn48       1.0     0.190622     0.499994     0.333507    Uiso  ? Zn
   H217       1.0     0.160972     0.555978     0.477805    Uiso  ? H
   H218       1.0     0.153958     0.575983     0.496482    Uiso  ? H
   H219       1.0     0.848830     0.416896     0.499294    Uiso  ? H
   H220       1.0     0.849119     0.425665     0.525265    Uiso  ? H
   H221       1.0     0.874846     0.502112     0.589104    Uiso  ? H
   H222       1.0     0.858492     0.491258     0.569652    Uiso  ? H
   H223       1.0     0.119453     0.425612     0.542482    Uiso  ? H
   H224       1.0     0.897320     0.435914     0.559876    Uiso  ? H
   H225       1.0     0.127740     0.495572     0.399227    Uiso  ? H
   H226       1.0     0.145613     0.508135     0.416322    Uiso  ? H
   H227       1.0     0.110963     0.432505     0.425592    Uiso  ? H
   H228       1.0     0.882952     0.440158     0.431282    Uiso  ? H
   H229       1.0     0.151687     0.430681     0.453924    Uiso  ? H
   H230       1.0     0.154165     0.434497     0.482269    Uiso  ? H
   H231       1.0     0.896039     0.573110     0.430213    Uiso  ? H
   H232       1.0     0.884441     0.553795     0.414009    Uiso  ? H
   H233       1.0     0.822702     0.504473     0.455580    Uiso  ? H
   H234       1.0     0.828665     0.522467     0.435591    Uiso  ? H
   H235       1.0     0.849900     0.578496     0.512081    Uiso  ? H
   H236       1.0     0.831626     0.557911     0.515448    Uiso  ? H
   H237       1.0     0.171409     0.503119     0.539503    Uiso  ? H
   H238       1.0     0.162963     0.481587     0.554690    Uiso  ? H
   H239       1.0     0.119316     0.576958     0.546379    Uiso  ? H
   H240       1.0     0.135412     0.560861     0.562596    Uiso  ? H
   C385       1.0     0.597584     0.841751     0.389516    Uiso  ? C
   C386       1.0     0.607323     0.825817     0.404685    Uiso  ? C
   C387       1.0     0.629844     0.819882     0.401443    Uiso  ? C
   H241       1.0     0.639241     0.826510     0.387592    Uiso  ? H
   C388       1.0     0.639709     0.805085     0.416534    Uiso  ? C
   H242       1.0     0.657057     0.799568     0.413761    Uiso  ? H
   C389       1.0     0.627245     0.795285     0.433000    Uiso  ? C
   H243       1.0     0.635216     0.783206     0.443447    Uiso  ? H
   C390       1.0     0.605254     0.802124     0.437173    Uiso  ? C
   C391       1.0     0.594860     0.816529     0.422148    Uiso  ? C
   H244       1.0     0.578168     0.821717     0.424289    Uiso  ? H
   C392       1.0     0.592209     0.791447     0.454914    Uiso  ? C
   C393       1.0     0.554211     0.838474     0.357117    Uiso  ? C
   C394       1.0     0.539361     0.819429     0.352648    Uiso  ? C
   C395       1.0     0.544432     0.804592     0.335699    Uiso  ? C
   H245       1.0     0.559505     0.807661     0.326087    Uiso  ? H
   C396       1.0     0.531067     0.786334     0.332021    Uiso  ? C
   H246       1.0     0.537268     0.774179     0.320555    Uiso  ? H
   C397       1.0     0.511662     0.783639     0.344164    Uiso  ? C
   H247       1.0     0.501345     0.768700     0.341130    Uiso  ? H
   C398       1.0     0.504954     0.799274     0.359476    Uiso  ? C
   C399       1.0     0.519140     0.817119     0.364177    Uiso  ? C
   H248       1.0     0.514333     0.828755     0.376490    Uiso  ? H
   C400       1.0     0.484210     0.795807     0.371697    Uiso  ? C
   C401       1.0     0.564178     0.107762     0.343018    Uiso  ? C
   C402       1.0     0.556415     0.128128     0.332487    Uiso  ? C
   C403       1.0     0.569022     0.137305     0.315392    Uiso  ? C
   H249       1.0     0.584274     0.128937     0.309006    Uiso  ? H
   C404       1.0     0.563115     0.158474     0.307549    Uiso  ? C
   H250       1.0     0.571891     0.165403     0.293683    Uiso  ? H
   C405       1.0     0.545177     0.169879     0.316769    Uiso  ? C
   H251       1.0     0.541540     0.187387     0.312307    Uiso  ? H
   C406       1.0     0.532641     0.160351     0.333533    Uiso  ? C
   C407       1.0     0.538149     0.139192     0.340766    Uiso  ? C
   H252       1.0     0.529250     0.132894     0.354427    Uiso  ? H
   C408       1.0     0.514349     0.172914     0.344104    Uiso  ? C
   C409       1.0     0.611228     0.892736     0.387493    Uiso  ? C
   C410       1.0     0.628768     0.109869     0.397759    Uiso  ? C
   C411       1.0     0.651437     0.105962     0.394243    Uiso  ? C
   H253       1.0     0.656665     0.889502     0.383110    Uiso  ? H
   C412       1.0     0.667090     0.119898     0.403485    Uiso  ? C
   H254       1.0     0.684289     0.118454     0.398986    Uiso  ? H
   C413       1.0     0.661044     0.138771     0.416205    Uiso  ? C
   H255       1.0     0.673956     0.149978     0.421546    Uiso  ? H
   C414       1.0     0.638583     0.142446     0.420227    Uiso  ? C
   C415       1.0     0.622712     0.127927     0.411020    Uiso  ? C
   H256       1.0     0.604844     0.130633     0.414639    Uiso  ? H
   C416       1.0     0.630844     0.161114     0.434439    Uiso  ? C
   C417       1.0     0.559827     0.763344     0.528536    Uiso  ? C
   C418       1.0     0.554401     0.757741     0.551785    Uiso  ? C
   C419       1.0     0.561285     0.737475     0.561007    Uiso  ? C
   H257       1.0     0.570451     0.725543     0.551132    Uiso  ? H
   C420       1.0     0.556927     0.732654     0.583014    Uiso  ? C
   H258       1.0     0.563605     0.718269     0.590948    Uiso  ? H
   C421       1.0     0.545197     0.747953     0.595909    Uiso  ? C
   H259       1.0     0.543174     0.743514     0.613325    Uiso  ? H
   C422       1.0     0.537848     0.767925     0.586967    Uiso  ? C
   C423       1.0     0.542562     0.773101     0.564916    Uiso  ? C
   H260       1.0     0.536843     0.788538     0.558623    Uiso  ? H
   C424       1.0     0.527438     0.784538     0.601372    Uiso  ? C
   C425       1.0     0.541043     0.750177     0.459514    Uiso  ? C
   C426       1.0     0.525209     0.740859     0.443817    Uiso  ? C
   C427       1.0     0.530230     0.721020     0.432595    Uiso  ? C
   H261       1.0     0.545212     0.711897     0.437504    Uiso  ? H
   C428       1.0     0.516791     0.712588     0.415577    Uiso  ? C
   H262       1.0     0.519792     0.696714     0.407069    Uiso  ? H
   C429       1.0     0.498838     0.725618     0.408530    Uiso  ? C
   H263       1.0     0.489467     0.720046     0.394132    Uiso  ? H
   C430       1.0     0.492967     0.745120     0.419639    Uiso  ? C
   C431       1.0     0.505800     0.752435     0.437578    Uiso  ? C
   H264       1.0     0.501305     0.766706     0.446061    Uiso  ? H
   C432       1.0     0.475413     0.759121     0.410817    Uiso  ? C
   C433       1.0     0.602021     0.788751     0.505205    Uiso  ? C
   C434       1.0     0.621431     0.799649     0.515901    Uiso  ? C
   C435       1.0     0.643260     0.790963     0.513438    Uiso  ? C
   H265       1.0     0.645224     0.776591     0.502492    Uiso  ? H
   C436       1.0     0.661135     0.800472     0.524728    Uiso  ? C
   H266       1.0     0.677759     0.794226     0.522893    Uiso  ? H
   C437       1.0     0.657821     0.819416     0.537686    Uiso  ? C
   H267       1.0     0.672257     0.826277     0.546273    Uiso  ? H
   C438       1.0     0.636522     0.828432     0.539918    Uiso  ? C
   C439       1.0     0.618468     0.818756     0.528668    Uiso  ? C
   H268       1.0     0.601610     0.825943     0.530293    Uiso  ? H
   C440       1.0     0.633633     0.848491     0.553564    Uiso  ? C
   C441       1.0     0.416086     0.777861     0.420655    Uiso  ? C
   C442       1.0     0.398093     0.771856     0.435551    Uiso  ? C
   C443       1.0     0.382121     0.755494     0.429804    Uiso  ? C
   H269       1.0     0.383067     0.747299     0.413647    Uiso  ? H
   C444       1.0     0.366182     0.749597     0.445215    Uiso  ? C
   H270       1.0     0.354631     0.735771     0.441819    Uiso  ? H
   C445       1.0     0.365744     0.759194     0.466527    Uiso  ? C
   H271       1.0     0.353199     0.753940     0.477785    Uiso  ? H
   C446       1.0     0.381563     0.775257     0.472331    Uiso  ? C
   C447       1.0     0.398345     0.780303     0.457318    Uiso  ? C
   H272       1.0     0.412457     0.790088     0.461957    Uiso  ? H
   C448       1.0     0.381195     0.784414     0.495270    Uiso  ? C
   C449       1.0     0.421932     0.820234     0.382437    Uiso  ? C
   C450       1.0     0.405713     0.836838     0.374700    Uiso  ? C
   C451       1.0     0.398556     0.837547     0.352934    Uiso  ? C
   H273       1.0     0.403182     0.825402     0.340474    Uiso  ? H
   C452       1.0     0.380957     0.852264     0.347077    Uiso  ? C
   H274       1.0     0.373534     0.851107     0.330887    Uiso  ? H
   C453       1.0     0.371243     0.866209     0.362986    Uiso  ? C
   H275       1.0     0.358635     0.878111     0.357365    Uiso  ? H
   C454       1.0     0.381288     0.867767     0.383675    Uiso  ? C
   C455       1.0     0.397402     0.852668     0.389976    Uiso  ? C
   H276       1.0     0.404250     0.852514     0.406234    Uiso  ? H
   C456       1.0     0.374283     0.884471     0.399783    Uiso  ? C
   C457       1.0     0.619809     0.857864     0.606660    Uiso  ? C
   C458       1.0     0.609569     0.841811     0.622323    Uiso  ? C
   C459       1.0     0.622481     0.827760     0.634427    Uiso  ? C
   H277       1.0     0.640187     0.828345     0.633828    Uiso  ? H
   C460       1.0     0.612338     0.811662     0.647577    Uiso  ? C
   H278       1.0     0.622695     0.801261     0.658310    Uiso  ? H
   C461       1.0     0.589076     0.809445     0.647767    Uiso  ? C
   H279       1.0     0.581825     0.796181     0.657553    Uiso  ? H
   C462       1.0     0.575840     0.824078     0.635442    Uiso  ? C
   C463       1.0     0.586140     0.840739     0.623444    Uiso  ? C
   H280       1.0     0.576493     0.851390     0.613946    Uiso  ? H
   C464       1.0     0.551615     0.820363     0.632845    Uiso  ? C
   C465       1.0     0.649862     0.114298     0.546926    Uiso  ? C
   C466       1.0     0.659337     0.128860     0.529549    Uiso  ? C
   C467       1.0     0.681847     0.126804     0.523480    Uiso  ? C
   H281       1.0     0.692866     0.116108     0.532773    Uiso  ? H
   C468       1.0     0.690522     0.139427     0.506223    Uiso  ? C
   H282       1.0     0.707789     0.137718     0.503229    Uiso  ? H
   C469       1.0     0.676883     0.153226     0.494146    Uiso  ? C
   H283       1.0     0.683654     0.161298     0.479247    Uiso  ? H
   C470       1.0     0.654041     0.155492     0.499030    Uiso  ? C
   C471       1.0     0.645411     0.143129     0.517093    Uiso  ? C
   H284       1.0     0.627824     0.144743     0.521552    Uiso  ? H
   C472       1.0     0.639233     0.169757     0.485253    Uiso  ? C
   C473       1.0     0.593973     0.214121     0.426529    Uiso  ? C
   C474       1.0     0.581273     0.221782     0.407001    Uiso  ? C
   C475       1.0     0.591292     0.234916     0.390505    Uiso  ? C
   H285       1.0     0.607758     0.241040     0.392581    Uiso  ? H
   C476       1.0     0.579964     0.240691     0.370864    Uiso  ? C
   H286       1.0     0.588161     0.250820     0.358604    Uiso  ? H
   C477       1.0     0.558582     0.233478     0.367202    Uiso  ? C
   H287       1.0     0.550650     0.238122     0.351190    Uiso  ? H
   C478       1.0     0.548252     0.220224     0.383520    Uiso  ? C
   C479       1.0     0.558665     0.215884     0.403828    Uiso  ? C
   H288       1.0     0.549132     0.207210     0.416795    Uiso  ? H
   C480       1.0     0.525952     0.211194     0.379082    Uiso  ? C
   O217       1.0     0.576791     0.847086     0.391975    Uiso  ? O
   O218       1.0     0.609453     0.850679     0.374991    Uiso  ? O
   O219       1.0     0.554669     0.846412     0.376513    Uiso  ? O
   O220       1.0     0.568292     0.845101     0.343060    Uiso  ? O
   O221       1.0     0.549840     0.892929     0.354118    Uiso  ? O
   O222       1.0     0.584728     0.103115     0.342036    Uiso  ? O
   O223       1.0     0.590630     0.895909     0.391497    Uiso  ? O
   O224       1.0     0.616287     0.879285     0.371914    Uiso  ? O
   O225       1.0     0.559252     0.782604     0.521554    Uiso  ? O
   O226       1.0     0.566397     0.748044     0.515298    Uiso  ? O
   O227       1.0     0.534988     0.763866     0.474414    Uiso  ? O
   O228       1.0     0.561151     0.745492     0.457842    Uiso  ? O
   O229       1.0     0.574753     0.800765     0.462430    Uiso  ? O
   O230       1.0     0.599113     0.773442     0.463863    Uiso  ? O
   O231       1.0     0.582267     0.795395     0.508159    Uiso  ? O
   O232       1.0     0.605525     0.773695     0.491007    Uiso  ? O
   O233       1.0     0.423603     0.797568     0.421875    Uiso  ? O
   O234       1.0     0.422904     0.764658     0.405860    Uiso  ? O
   O235       1.0     0.425237     0.818043     0.402922    Uiso  ? O
   O236       1.0     0.431033     0.806910     0.368837    Uiso  ? O
   O237       1.0     0.476256     0.811075     0.383282    Uiso  ? O
   O238       1.0     0.474861     0.776910     0.371570    Uiso  ? O
   O239       1.0     0.468266     0.775163     0.422651    Uiso  ? O
   O240       1.0     0.470138     0.758751     0.390594    Uiso  ? O
   O241       1.0     0.608454     0.874400     0.599925    Uiso  ? O
   O242       1.0     0.638373     0.853683     0.598077    Uiso  ? O
   O243       1.0     0.622100     0.864293     0.547216    Uiso  ? O
   O244       1.0     0.645677     0.850718     0.571256    Uiso  ? O
   O245       1.0     0.630057     0.117381     0.553349    Uiso  ? O
   O246       1.0     0.660631     0.895728     0.555401    Uiso  ? O
   O247       1.0     0.619746     0.123543     0.577512    Uiso  ? O
   O248       1.0     0.640987     0.111783     0.604751    Uiso  ? O
   O249       1.0     0.619192     0.172995     0.489274    Uiso  ? O
   O250       1.0     0.647870     0.179746     0.468618    Uiso  ? O
   O251       1.0     0.610658     0.161948     0.440585    Uiso  ? O
   O252       1.0     0.644671     0.175604     0.441789    Uiso  ? O
   O253       1.0     0.583925     0.207200     0.443609    Uiso  ? O
   O254       1.0     0.614439     0.211931     0.424957    Uiso  ? O
   O255       1.0     0.605032     0.197013     0.494139    Uiso  ? O
   O256       1.0     0.624124     0.224369     0.480024    Uiso  ? O
   O257       1.0     0.482608     0.843350     0.624172    Uiso  ? O
   O258       1.0     0.497302     0.831423     0.655589    Uiso  ? O
   O259       1.0     0.488280     0.801901     0.597759    Uiso  ? O
   O260       1.0     0.482975     0.785706     0.629836    Uiso  ? O
   O261       1.0     0.516219     0.800168     0.592999    Uiso  ? O
   O262       1.0     0.528899     0.783814     0.622661    Uiso  ? O
   O263       1.0     0.539836     0.834678     0.622968    Uiso  ? O
   O264       1.0     0.543076     0.802337     0.640099    Uiso  ? O
   O265       1.0     0.540876     0.891757     0.404240    Uiso  ? O
   O266       1.0     0.531559     0.816903     0.489578    Uiso  ? O
   O267       1.0     0.472781     0.826239     0.433587    Uiso  ? O
   O268       1.0     0.576819     0.888201     0.562983    Uiso  ? O
   O269       1.0     0.568634     0.161636     0.467897    Uiso  ? O
   O270       1.0     0.508330     0.852339     0.582199    Uiso  ? O
   Zn49       1.0     0.562537     0.878604     0.381936    Uiso  ? Zn
   Zn50       1.0     0.595766     0.867626     0.346669    Uiso  ? Zn
   Zn51       1.0     0.553369     0.790394     0.487640    Uiso  ? Zn
   Zn52       1.0     0.582067     0.749425     0.484114    Uiso  ? Zn
   Zn53       1.0     0.456911     0.805803     0.411529    Uiso  ? Zn
   Zn54       1.0     0.441098     0.774789     0.377747    Uiso  ? Zn
   Zn55       1.0     0.610885     0.888219     0.568973    Uiso  ? Zn
   Zn56       1.0     0.655084     0.881656     0.586500    Uiso  ? Zn
   Zn57       1.0     0.595544     0.181417     0.464088    Uiso  ? Zn
   Zn58       1.0     0.636227     0.208242     0.451117    Uiso  ? Zn
   Zn59       1.0     0.508148     0.829968     0.607532    Uiso  ? Zn
   Zn60       1.0     0.509166     0.800765     0.647995    Uiso  ? Zn
   C481       1.0     0.397988     0.174738     0.596861    Uiso  ? C
   C482       1.0     0.393433     0.196014     0.586028    Uiso  ? C
   C483       1.0     0.380174     0.211942     0.596280    Uiso  ? C
   H289       1.0     0.372086     0.208758     0.612678    Uiso  ? H
   C484       1.0     0.378241     0.233266     0.587423    Uiso  ? C
   H290       1.0     0.368652     0.244768     0.596696    Uiso  ? H
   C485       1.0     0.387331     0.238038     0.566499    Uiso  ? C
   H291       1.0     0.384942     0.254206     0.559875    Uiso  ? H
   C486       1.0     0.398961     0.221287     0.555214    Uiso  ? C
   C487       1.0     0.402147     0.200509     0.565203    Uiso  ? C
   H292       1.0     0.413077     0.189489     0.557185    Uiso  ? H
   C488       1.0     0.411090     0.226399     0.534461    Uiso  ? C
   C489       1.0     0.439908     0.162885     0.630064    Uiso  ? C
   C490       1.0     0.457249     0.177589     0.638737    Uiso  ? C
   C491       1.0     0.456933     0.185334     0.660380    Uiso  ? C
   H293       1.0     0.444211     0.179365     0.671739    Uiso  ? H
   C492       1.0     0.474170     0.198624     0.668653    Uiso  ? C
   H294       1.0     0.473461     0.203304     0.686334    Uiso  ? H
   C493       1.0     0.492194     0.203948     0.655630    Uiso  ? C
   H295       1.0     0.504115     0.214568     0.662557    Uiso  ? H
   C494       1.0     0.492971     0.196812     0.633620    Uiso  ? C
   C495       1.0     0.475079     0.183445     0.624777    Uiso  ? C
   H296       1.0     0.474987     0.177605     0.607675    Uiso  ? H
   C496       1.0     0.511629     0.202727     0.620134    Uiso  ? C
   C497       1.0     0.432827     0.111747     0.643088    Uiso  ? C
   C498       1.0     0.446284     0.893055     0.656171    Uiso  ? C
   C499       1.0     0.448334     0.895707     0.679232    Uiso  ? C
   H297       1.0     0.438894     0.110837     0.688153    Uiso  ? H
   C500       1.0     0.462805     0.882320     0.691464    Uiso  ? C
   H298       1.0     0.463534     0.883825     0.709149    Uiso  ? H
   C501       1.0     0.473654     0.865427     0.680672    Uiso  ? C
   H299       1.0     0.482823     0.853820     0.690525    Uiso  ? H
   C502       1.0     0.472404     0.862561     0.657620    Uiso  ? C
   C503       1.0     0.458646     0.876461     0.645405    Uiso  ? C
   H300       1.0     0.456945     0.874229     0.628120    Uiso  ? H
   C504       1.0     0.484542     0.844833     0.645061    Uiso  ? C
   C505       1.0     0.378719     0.106410     0.604954    Uiso  ? C
   C506       1.0     0.363165     0.884878     0.598711    Uiso  ? C
   C507       1.0     0.345444     0.879602     0.612407    Uiso  ? C
   H301       1.0     0.340330     0.889805     0.626046    Uiso  ? H
   C508       1.0     0.332750     0.861091     0.608497    Uiso  ? C
   H302       1.0     0.318003     0.856356     0.618556    Uiso  ? H
   C509       1.0     0.338227     0.846671     0.591277    Uiso  ? C
   H303       1.0     0.327593     0.832518     0.587699    Uiso  ? H
   C510       1.0     0.356780     0.850922     0.577796    Uiso  ? C
   C511       1.0     0.368900     0.870477     0.581263    Uiso  ? C
   H304       1.0     0.383679     0.873702     0.571452    Uiso  ? H
   C512       1.0     0.364577     0.833569     0.562227    Uiso  ? C
   C513       1.0     0.451287     0.256305     0.464807    Uiso  ? C
   C514       1.0     0.462061     0.262151     0.444069    Uiso  ? C
   C515       1.0     0.465859     0.284688     0.437780    Uiso  ? C
   H305       1.0     0.461131     0.297898     0.449761    Uiso  ? H
   C516       1.0     0.476131     0.289174     0.417633    Uiso  ? C
   H306       1.0     0.478344     0.306166     0.412212    Uiso  ? H
   C517       1.0     0.481492     0.271492     0.402969    Uiso  ? C
   H307       1.0     0.488390     0.276034     0.386593    Uiso  ? H
   C518       1.0     0.479128     0.249257     0.409471    Uiso  ? C
   C519       1.0     0.470915     0.245122     0.431063    Uiso  ? C
   H308       1.0     0.468469     0.228029     0.435703    Uiso  ? H
   C520       1.0     0.482147     0.230280     0.393939    Uiso  ? C
   C521       1.0     0.466550     0.257826     0.518861    Uiso  ? C
   C522       1.0     0.485981     0.266241     0.531108    Uiso  ? C
   C523       1.0     0.490008     0.288717     0.532918    Uiso  ? C
   H309       1.0     0.480507     0.300442     0.523263    Uiso  ? H
   C524       1.0     0.507017     0.296236     0.546295    Uiso  ? C
   H310       1.0     0.509634     0.313878     0.547622    Uiso  ? H
   C525       1.0     0.520089     0.281676     0.558476    Uiso  ? C
   H311       1.0     0.534068     0.287019     0.568501    Uiso  ? H
   C526       1.0     0.516507     0.258931     0.556896    Uiso  ? C
   C527       1.0     0.499665     0.251172     0.542689    Uiso  ? C
   H312       1.0     0.497598     0.233641     0.541368    Uiso  ? H
   C528       1.0     0.527742     0.243759     0.572316    Uiso  ? C
   C529       1.0     0.398199     0.223172     0.480774    Uiso  ? C
   C530       1.0     0.379364     0.213622     0.468301    Uiso  ? C
   C531       1.0     0.360171     0.225963     0.464701    Uiso  ? C
   H313       1.0     0.357274     0.241319     0.473389    Uiso  ? H
   C532       1.0     0.342035     0.217776     0.452742    Uiso  ? C
   H314       1.0     0.326502     0.226729     0.451922    Uiso  ? H
   C533       1.0     0.342931     0.195879     0.444933    Uiso  ? C
   H315       1.0     0.329300     0.189189     0.436451    Uiso  ? H
   C534       1.0     0.362557     0.183833     0.447665    Uiso  ? C
   C535       1.0     0.380896     0.192374     0.459462    Uiso  ? C
   H316       1.0     0.396235     0.182584     0.461011    Uiso  ? H
   C536       1.0     0.362986     0.160530     0.439873    Uiso  ? C
   C537       1.0     0.576495     0.225513     0.569743    Uiso  ? C
   C538       1.0     0.592745     0.231914     0.553882    Uiso  ? C
   C539       1.0     0.607714     0.248421     0.559513    Uiso  ? C
   H317       1.0     0.607818     0.256522     0.575567    Uiso  ? H
   C540       1.0     0.624469     0.254027     0.544628    Uiso  ? C
   H318       1.0     0.635844     0.266749     0.548659    Uiso  ? H
   C541       1.0     0.625741     0.244519     0.523625    Uiso  ? C
   H319       1.0     0.638871     0.248804     0.512474    Uiso  ? H
   C542       1.0     0.610805     0.227514     0.517743    Uiso  ? C
   C543       1.0     0.594683     0.220894     0.533538    Uiso  ? C
   H320       1.0     0.582812     0.208082     0.529635    Uiso  ? H
   C544       1.0     0.613675     0.215765     0.496186    Uiso  ? C
   C545       1.0     0.583761     0.193633     0.609110    Uiso  ? C
   C546       1.0     0.604720     0.181212     0.613177    Uiso  ? C
   C547       1.0     0.621968     0.190182     0.626622    Uiso  ? C
   H321       1.0     0.620538     0.206254     0.634976    Uiso  ? H
   C548       1.0     0.641015     0.177909     0.631054    Uiso  ? C
   H322       1.0     0.653841     0.184452     0.641658    Uiso  ? H
   C549       1.0     0.642779     0.156724     0.622120    Uiso  ? C
   H323       1.0     0.657961     0.148030     0.624935    Uiso  ? H
   C550       1.0     0.626934     0.148324     0.607436    Uiso  ? C
   C551       1.0     0.607897     0.160354     0.603455    Uiso  ? C
   H324       1.0     0.594446     0.153459     0.593333    Uiso  ? H
   C552       1.0     0.629459     0.126951     0.595868    Uiso  ? C
   C553       1.0     0.381209     0.140424     0.395508    Uiso  ? C
   C554       1.0     0.391748     0.152678     0.377368    Uiso  ? C
   C555       1.0     0.380875     0.156759     0.356714    Uiso  ? C
   H325       1.0     0.364455     0.150750     0.353468    Uiso  ? H
   C556       1.0     0.391970     0.167805     0.340026    Uiso  ? C
   H326       1.0     0.383548     0.171025     0.324240    Uiso  ? H
   C557       1.0     0.414256     0.174801     0.342899    Uiso  ? C
   H327       1.0     0.423598     0.184046     0.330688    Uiso  ? H
   C558       1.0     0.424324     0.171747     0.363411    Uiso  ? C
   C559       1.0     0.413080     0.160352     0.380167    Uiso  ? C
   H328       1.0     0.421874     0.156413     0.395488    Uiso  ? H
   C560       1.0     0.446870     0.179338     0.367015    Uiso  ? C
   C561       1.0     0.341444     0.891405     0.456541    Uiso  ? C
   C562       1.0     0.333653     0.873304     0.471425    Uiso  ? C
   C563       1.0     0.312002     0.865218     0.469222    Uiso  ? C
   H329       1.0     0.300184     0.873810     0.458525    Uiso  ? H
   C564       1.0     0.304325     0.848040     0.482319    Uiso  ? C
   H330       1.0     0.287699     0.842551     0.480824    Uiso  ? H
   C565       1.0     0.319140     0.837287     0.496743    Uiso  ? C
   H331       1.0     0.312545     0.824336     0.507633    Uiso  ? H
   C566       1.0     0.341365     0.844071     0.498347    Uiso  ? C
   C567       1.0     0.348552     0.862409     0.485612    Uiso  ? C
   H332       1.0     0.364977     0.869179     0.487394    Uiso  ? H
   C568       1.0     0.356967     0.830727     0.510927    Uiso  ? C
   C569       1.0     0.411073     0.787375     0.559271    Uiso  ? C
   C570       1.0     0.425394     0.776079     0.575612    Uiso  ? C
   C571       1.0     0.418308     0.756448     0.585626    Uiso  ? C
   H333       1.0     0.402437     0.749607     0.580567    Uiso  ? H
   C572       1.0     0.431136     0.746146     0.601638    Uiso  ? C
   H334       1.0     0.427007     0.730563     0.608393    Uiso  ? H
   C573       1.0     0.450498     0.756489     0.609451    Uiso  ? C
   H335       1.0     0.459419     0.749096     0.622052    Uiso  ? H
   C574       1.0     0.457946     0.776221     0.599687    Uiso  ? C
   C575       1.0     0.445367     0.785988     0.582997    Uiso  ? C
   H336       1.0     0.449604     0.802903     0.576462    Uiso  ? H
   C576       1.0     0.477435     0.788357     0.609263    Uiso  ? C
   O271       1.0     0.414770     0.163795     0.590548    Uiso  ? O
   O272       1.0     0.387349     0.168772     0.614001    Uiso  ? O
   O273       1.0     0.437153     0.158908     0.609408    Uiso  ? O
   O274       1.0     0.426326     0.154998     0.643450    Uiso  ? O
   O275       1.0     0.433847     0.110243     0.622452    Uiso  ? O
   O276       1.0     0.421557     0.126981     0.652229    Uiso  ? O
   O277       1.0     0.391603     0.114287     0.590422    Uiso  ? O
   O278       1.0     0.380706     0.112020     0.624940    Uiso  ? O
   O279       1.0     0.447028     0.235458     0.467934    Uiso  ? O
   O280       1.0     0.448367     0.269531     0.480740    Uiso  ? O
   O281       1.0     0.460238     0.238007     0.521347    Uiso  ? O
   O282       1.0     0.455996     0.270136     0.505578    Uiso  ? O
   O283       1.0     0.415759     0.211835     0.519773    Uiso  ? O
   O284       1.0     0.416271     0.246581     0.530886    Uiso  ? O
   O285       1.0     0.409096     0.211269     0.494244    Uiso  ? O
   O286       1.0     0.402898     0.243218     0.478010    Uiso  ? O
   O287       1.0     0.559369     0.214422     0.563176    Uiso  ? O
   O288       1.0     0.577942     0.230975     0.590038    Uiso  ? O
   O289       1.0     0.567824     0.182812     0.601110    Uiso  ? O
   O290       1.0     0.582053     0.214507     0.611116    Uiso  ? O
   O291       1.0     0.511820     0.196848     0.600165    Uiso  ? O
   O292       1.0     0.527835     0.212605     0.628260    Uiso  ? O
   O293       1.0     0.532674     0.224160     0.566084    Uiso  ? O
   O294       1.0     0.534137     0.250613     0.591219    Uiso  ? O
   O295       1.0     0.389733     0.140012     0.414811    Uiso  ? O
   O296       1.0     0.363840     0.128933     0.391274    Uiso  ? O
   O297       1.0     0.381437     0.150099     0.438403    Uiso  ? O
   O298       1.0     0.345326     0.150782     0.434072    Uiso  ? O
   O299       1.0     0.359159     0.105654     0.462055    Uiso  ? O
   O300       1.0     0.334159     0.892483     0.436733    Uiso  ? O
   O301       1.0     0.386223     0.887555     0.416656    Uiso  ? O
   O302       1.0     0.359921     0.101889     0.394884    Uiso  ? O
   O303       1.0     0.373372     0.839751     0.520668    Uiso  ? O
   O304       1.0     0.352483     0.810159     0.513954    Uiso  ? O
   O305       1.0     0.380354     0.837927     0.548553    Uiso  ? O
   O306       1.0     0.355059     0.814714     0.562360    Uiso  ? O
   O307       1.0     0.413467     0.807507     0.554607    Uiso  ? O
   O308       1.0     0.395172     0.776971     0.550011    Uiso  ? O
   O309       1.0     0.397550     0.795392     0.502082    Uiso  ? O
   O310       1.0     0.363357     0.784814     0.505967    Uiso  ? O
   O311       1.0     0.503029     0.163550     0.359161    Uiso  ? O
   O312       1.0     0.512664     0.193322     0.340705    Uiso  ? O
   O313       1.0     0.514824     0.201724     0.394592    Uiso  ? O
   O314       1.0     0.517257     0.212521     0.360085    Uiso  ? O
   O315       1.0     0.488084     0.211250     0.401325    Uiso  ? O
   O316       1.0     0.478789     0.233022     0.373752    Uiso  ? O
   O317       1.0     0.454779     0.179363     0.386031    Uiso  ? O
   O318       1.0     0.458079     0.186733     0.350888    Uiso  ? O
   O319       1.0     0.438056     0.120347     0.568382    Uiso  ? O
   O320       1.0     0.464020     0.191581     0.494371    Uiso  ? O
   O321       1.0     0.533135     0.165891     0.564825    Uiso  ? O
   O322       1.0     0.408818     0.108995     0.462337    Uiso  ? O
   O323       1.0     0.428520     0.835034     0.515194    Uiso  ? O
   O324       1.0     0.492475     0.153262     0.410878    Uiso  ? O
   Zn61       1.0     0.421411     0.129520     0.596400    Uiso  ? Zn
   Zn62       1.0     0.393043     0.142264     0.636173    Uiso  ? Zn
   Zn63       1.0     0.442571     0.219078     0.497899    Uiso  ? Zn
   Zn64       1.0     0.421681     0.262331     0.500977    Uiso  ? Zn
   Zn65       1.0     0.540127     0.193616     0.583093    Uiso  ? Zn
   Zn66       1.0     0.551957     0.232822     0.613935    Uiso  ? Zn
   Zn67       1.0     0.384089     0.115908     0.440165    Uiso  ? Zn
   Zn68       1.0     0.340087     0.122019     0.416327    Uiso  ? Zn
   Zn69       1.0     0.400186     0.819591     0.526707    Uiso  ? Zn
   Zn70       1.0     0.364180     0.789374     0.540837    Uiso  ? Zn
   Zn71       1.0     0.489405     0.178936     0.387160    Uiso  ? Zn
   Zn72       1.0     0.483585     0.210273     0.349034    Uiso  ? Zn
   H337       1.0     0.479555     0.193543     0.492942    Uiso  ? H
   H338       1.0     0.456834     0.177362     0.495953    Uiso  ? H
   H339       1.0     0.534307     0.827398     0.501926    Uiso  ? H
   H340       1.0     0.519127     0.818718     0.480351    Uiso  ? H
   H341       1.0     0.521847     0.855986     0.574149    Uiso  ? H
   H342       1.0     0.495173     0.861699     0.581779    Uiso  ? H
   H343       1.0     0.567569     0.882881     0.574924    Uiso  ? H
   H344       1.0     0.571767     0.886786     0.547594    Uiso  ? H
   H345       1.0     0.506369     0.145602     0.412827    Uiso  ? H
   H346       1.0     0.483838     0.154326     0.423727    Uiso  ? H
   H347       1.0     0.531817     0.881654     0.412472    Uiso  ? H
   H348       1.0     0.540517     0.110619     0.407816    Uiso  ? H
   H349       1.0     0.563238     0.154177     0.454911    Uiso  ? H
   H350       1.0     0.560439     0.160740     0.481451    Uiso  ? H
   H351       1.0     0.409658     0.118558     0.475385    Uiso  ? H
   H352       1.0     0.414538     0.891187     0.462761    Uiso  ? H
   H353       1.0     0.467678     0.825366     0.448490    Uiso  ? H
   H354       1.0     0.483007     0.837215     0.428679    Uiso  ? H
   H355       1.0     0.431084     0.835017     0.499481    Uiso  ? H
   H356       1.0     0.438375     0.841705     0.525095    Uiso  ? H
   H357       1.0     0.526849     0.152836     0.571796    Uiso  ? H
   H358       1.0     0.536941     0.165763     0.548654    Uiso  ? H
   H359       1.0     0.452456     0.113963     0.570368    Uiso  ? H
   H360       1.0     0.432698     0.122629     0.553272    Uiso  ? H
   C577       1.0     0.439007     0.366783     0.165593    Uiso  ? C
   C578       1.0     0.456920     0.358668     0.180707    Uiso  ? C
   C579       1.0     0.459912     0.336125     0.184354    Uiso  ? C
   H361       1.0     0.448486     0.324755     0.176758    Uiso  ? H
   C580       1.0     0.474912     0.329244     0.200034    Uiso  ? C
   H362       1.0     0.476587     0.311891     0.204098    Uiso  ? H
   C581       1.0     0.489889     0.344123     0.209874    Uiso  ? C
   H363       1.0     0.502661     0.338297     0.221046    Uiso  ? H
   C582       1.0     0.487664     0.366553     0.205335    Uiso  ? C
   C583       1.0     0.471416     0.373531     0.190643    Uiso  ? C
   H364       1.0     0.469618     0.390343     0.186567    Uiso  ? H
   C584       1.0     0.502999     0.382842     0.215034    Uiso  ? C
   C585       1.0     0.386688     0.403854     0.173072    Uiso  ? C
   C586       1.0     0.378711     0.416923     0.192150    Uiso  ? C
   C587       1.0     0.363782     0.407998     0.208215    Uiso  ? C
   H365       1.0     0.357045     0.392016     0.204917    Uiso  ? H
   C588       1.0     0.358309     0.419720     0.227273    Uiso  ? C
   H366       1.0     0.347279     0.412004     0.238986    Uiso  ? H
   C589       1.0     0.366898     0.441555     0.230269    Uiso  ? C
   H367       1.0     0.361115     0.451132     0.244860    Uiso  ? H
   C590       1.0     0.381961     0.450338     0.214756    Uiso  ? C
   C591       1.0     0.387430     0.438235     0.195843    Uiso  ? C
   H368       1.0     0.397526     0.445680     0.182651    Uiso  ? H
   C592       1.0     0.393225     0.471358     0.218459    Uiso  ? C
   C593       1.0     0.388048     0.392226     0.103570    Uiso  ? C
   C594       1.0     0.375973     0.395890     0.883901    Uiso  ? C
   C595       1.0     0.355694     0.385668     0.881057    Uiso  ? C
   H369       1.0     0.348696     0.375295     0.894093    Uiso  ? H
   C596       1.0     0.343007     0.389022     0.861972    Uiso  ? C
   H370       1.0     0.327342     0.380265     0.860218    Uiso  ? H
   C597       1.0     0.350663     0.404295     0.845376    Uiso  ? C
   H371       1.0     0.339545     0.406864     0.831477    Uiso  ? H
   C598       1.0     0.370813     0.415086     0.848182    Uiso  ? C
   C599       1.0     0.384199     0.410774     0.867280    Uiso  ? C
   H372       1.0     0.399719     0.419404     0.868839    Uiso  ? H
   C600       1.0     0.378410     0.431134     0.831348    Uiso  ? C
   C601       1.0     0.430077     0.359239     0.115772    Uiso  ? C
   C602       1.0     0.440630     0.343596     0.900000    Uiso  ? C
   C603       1.0     0.434270     0.320802     0.898284    Uiso  ? C
   H373       1.0     0.421365     0.315236     0.106292    Uiso  ? H
   C604       1.0     0.445254     0.306862     0.883773    Uiso  ? C
   H374       1.0     0.441131     0.290326     0.882125    Uiso  ? H
   C605       1.0     0.462635     0.314530     0.870673    Uiso  ? C
   H375       1.0     0.471417     0.303683     0.859889    Uiso  ? H
   C606       1.0     0.469933     0.336665     0.872853    Uiso  ? C
   C607       1.0     0.458983     0.351105     0.887067    Uiso  ? C
   H376       1.0     0.465532     0.368016     0.889346    Uiso  ? H
   C608       1.0     0.487851     0.344293     0.857901    Uiso  ? C
   C609       1.0     0.560301     0.442115     0.241583    Uiso  ? C
   C610       1.0     0.577036     0.458446     0.248186    Uiso  ? C
   C611       1.0     0.591059     0.454627     0.267023    Uiso  ? C
   H377       1.0     0.588533     0.440697     0.277415    Uiso  ? H
   C612       1.0     0.606462     0.470108     0.273332    Uiso  ? C
   H378       1.0     0.616172     0.467056     0.288041    Uiso  ? H
   C613       1.0     0.610111     0.488843     0.260611    Uiso  ? C
   H379       1.0     0.623203     0.499880     0.265875    Uiso  ? H
   C614       1.0     0.597009     0.493059     0.241351    Uiso  ? C
   C615       1.0     0.580271     0.477797     0.235391    Uiso  ? C
   H380       1.0     0.570550     0.480276     0.220845    Uiso  ? H
   C616       1.0     0.601451     0.512623     0.227506    Uiso  ? C
   C617       1.0     0.500090     0.426604     0.248647    Uiso  ? C
   C618       1.0     0.481309     0.436864     0.259820    Uiso  ? C
   C619       1.0     0.476179     0.432601     0.282469    Uiso  ? C
   H381       1.0     0.485629     0.419879     0.291337    Uiso  ? H
   C620       1.0     0.456245     0.440654     0.291417    Uiso  ? C
   H382       1.0     0.451533     0.435968     0.308232    Uiso  ? H
   C621       1.0     0.443831     0.455890     0.279713    Uiso  ? C
   H383       1.0     0.428852     0.462627     0.287775    Uiso  ? H
   C622       1.0     0.450007     0.461715     0.258118    Uiso  ? C
   C623       1.0     0.468486     0.452195     0.248232    Uiso  ? C
   H384       1.0     0.472955     0.457224     0.231258    Uiso  ? H
   C624       1.0     0.436656     0.478406     0.245670    Uiso  ? C
   C625       1.0     0.571544     0.394080     0.216189    Uiso  ? C
   C626       1.0     0.592996     0.388649     0.206425    Uiso  ? C
   C627       1.0     0.609746     0.379708     0.219404    Uiso  ? C
   H385       1.0     0.606737     0.374808     0.236601    Uiso  ? H
   C628       1.0     0.631230     0.376649     0.210454    Uiso  ? C
   H386       1.0     0.643657     0.369069     0.220232    Uiso  ? H
   C629       1.0     0.636036     0.382981     0.188855    Uiso  ? C
   H387       1.0     0.652973     0.380644     0.182604    Uiso  ? H
   C630       1.0     0.619281     0.393410     0.175968    Uiso  ? C
   C631       1.0     0.597791     0.395840     0.184869    Uiso  ? C
   H388       1.0     0.585948     0.404961     0.175054    Uiso  ? H
   C632       1.0     0.624507     0.403632     0.154128    Uiso  ? C
   C633       1.0     0.433273     0.546171     0.233974    Uiso  ? C
   C634       1.0     0.444064     0.567498     0.239467    Uiso  ? C
   C635       1.0     0.445820     0.574363     0.261622    Uiso  ? C
   H389       1.0     0.440802     0.563736     0.275068    Uiso  ? H
   C636       1.0     0.455285     0.594468     0.266137    Uiso  ? C
   H390       1.0     0.456630     0.600000     0.283013    Uiso  ? H
   C637       1.0     0.463184     0.607881     0.249270    Uiso  ? C
   H391       1.0     0.470361     0.623514     0.253002    Uiso  ? H
   C638       1.0     0.462116     0.601159     0.227224    Uiso  ? C
   C639       1.0     0.451662     0.581348     0.222620    Uiso  ? C
   H392       1.0     0.449784     0.576481     0.205646    Uiso  ? H
   C640       1.0     0.471242     0.614965     0.209068    Uiso  ? C
   C641       1.0     0.379896     0.518259     0.198021    Uiso  ? C
   C642       1.0     0.362302     0.526653     0.183285    Uiso  ? C
   C643       1.0     0.340510     0.523870     0.189494    Uiso  ? C
   H393       1.0     0.336920     0.514528     0.204260    Uiso  ? H
   C644       1.0     0.323895     0.529849     0.174613    Uiso  ? C
   H394       1.0     0.306308     0.525334     0.177814    Uiso  ? H
   C645       1.0     0.328723     0.540725     0.154602    Uiso  ? C
   H395       1.0     0.316264     0.546482     0.143280    Uiso  ? H
   C646       1.0     0.351070     0.544867     0.149281    Uiso  ? C
   C647       1.0     0.367869     0.537234     0.163487    Uiso  ? C
   H396       1.0     0.384985     0.538983     0.159479    Uiso  ? H
   C648       1.0     0.357666     0.558070     0.129624    Uiso  ? C
   C649       1.0     0.652062     0.449636     0.142880    Uiso  ? C
   C650       1.0     0.659800     0.467708     0.157593    Uiso  ? C
   C651       1.0     0.681717     0.467233     0.166138    Uiso  ? C
   H397       1.0     0.694242     0.454630     0.160637    Uiso  ? H
   C652       1.0     0.687938     0.483113     0.181770    Uiso  ? C
   H398       1.0     0.704922     0.482985     0.189387    Uiso  ? H
   C653       1.0     0.673216     0.499520     0.188476    Uiso  ? C
   H399       1.0     0.678840     0.512167     0.200134    Uiso  ? H
   C654       1.0     0.651871     0.499802     0.180271    Uiso  ? C
   C655       1.0     0.644905     0.484234     0.164723    Uiso  ? C
   H400       1.0     0.627604     0.484204     0.158723    Uiso  ? H
   C656       1.0     0.635839     0.516639     0.188101    Uiso  ? C
   C657       1.0     0.618301     0.388867     0.894417    Uiso  ? C
   C658       1.0     0.606100     0.369995     0.884707    Uiso  ? C
   C659       1.0     0.614108     0.348512     0.887405    Uiso  ? C
   H401       1.0     0.630236     0.346114     0.894501    Uiso  ? H
   C660       1.0     0.602056     0.330499     0.879660    Uiso  ? C
   H402       1.0     0.608724     0.313632     0.881169    Uiso  ? H
   C661       1.0     0.582473     0.334116     0.868104    Uiso  ? C
   H403       1.0     0.574686     0.319569     0.860209    Uiso  ? H
   C662       1.0     0.575050     0.355304     0.863762    Uiso  ? C
   C663       1.0     0.587102     0.372858     0.871857    Uiso  ? C
   H404       1.0     0.580655     0.388885     0.869869    Uiso  ? H
   C664       1.0     0.554355     0.358417     0.851642    Uiso  ? C
   C665       1.0     0.480371     0.369939     0.810054    Uiso  ? C
   C666       1.0     0.459133     0.374594     0.799495    Uiso  ? C
   C667       1.0     0.449751     0.359391     0.784538    Uiso  ? C
   H405       1.0     0.457298     0.343543     0.782427    Uiso  ? H
   C668       1.0     0.429687     0.363761     0.773993    Uiso  ? C
   H406       1.0     0.423031     0.351695     0.763115    Uiso  ? H
   C669       1.0     0.419191     0.384195     0.776983    Uiso  ? C
   H407       1.0     0.404242     0.387508     0.768232    Uiso  ? H
   C670       1.0     0.428310     0.399878     0.791597    Uiso  ? C
   C671       1.0     0.447405     0.394141     0.803565    Uiso  ? C
   H408       1.0     0.452758     0.405198     0.816238    Uiso  ? H
   C672       1.0     0.416050     0.420600     0.796321    Uiso  ? C
   O325       1.0     0.440648     0.386690     0.158325    Uiso  ? O
   O326       1.0     0.423172     0.354301     0.158702    Uiso  ? O
   O327       1.0     0.393691     0.413500     0.155614    Uiso  ? O
   O328       1.0     0.388678     0.383218     0.175642    Uiso  ? O
   O329       1.0     0.408385     0.396550     0.104462    Uiso  ? O
   O330       1.0     0.378104     0.382489     0.119507    Uiso  ? O
   O331       1.0     0.428322     0.380212     0.112234    Uiso  ? O
   O332       1.0     0.419756     0.349964     0.132055    Uiso  ? O
   O333       1.0     0.545392     0.446729     0.227436    Uiso  ? O
   O334       1.0     0.563125     0.422129     0.247809    Uiso  ? O
   O335       1.0     0.500726     0.424513     0.227373    Uiso  ? O
   O336       1.0     0.515954     0.419312     0.259937    Uiso  ? O
   O337       1.0     0.499855     0.403900     0.212431    Uiso  ? O
   O338       1.0     0.519676     0.376251     0.225630    Uiso  ? O
   O339       1.0     0.554541     0.396378     0.204323    Uiso  ? O
   O340       1.0     0.570343     0.399524     0.236466    Uiso  ? O
   O341       1.0     0.430504     0.540406     0.214050    Uiso  ? O
   O342       1.0     0.424860     0.534567     0.249440    Uiso  ? O
   O343       1.0     0.395529     0.506281     0.190954    Uiso  ? O
   O344       1.0     0.380268     0.525183     0.217823    Uiso  ? O
   O345       1.0     0.401869     0.482484     0.202741    Uiso  ? O
   O346       1.0     0.394089     0.478827     0.237743    Uiso  ? O
   O347       1.0     0.443636     0.486183     0.227213    Uiso  ? O
   O348       1.0     0.417635     0.483832     0.253359    Uiso  ? O
   O349       1.0     0.636685     0.454138     0.129106    Uiso  ? O
   O350       1.0     0.659357     0.430256     0.145106    Uiso  ? O
   O351       1.0     0.608805     0.410511     0.141467    Uiso  ? O
   O352       1.0     0.644639     0.407084     0.148614    Uiso  ? O
   O353       1.0     0.610651     0.408408     0.892081    Uiso  ? O
   O354       1.0     0.635097     0.386823     0.105028    Uiso  ? O
   O355       1.0     0.621199     0.432761     0.882971    Uiso  ? O
   O356       1.0     0.656811     0.433098     0.891963    Uiso  ? O
   O357       1.0     0.548914     0.377491     0.844674    Uiso  ? O
   O358       1.0     0.542616     0.341595     0.846781    Uiso  ? O
   O359       1.0     0.501138     0.359642     0.864040    Uiso  ? O
   O360       1.0     0.489173     0.336849     0.838153    Uiso  ? O
   O361       1.0     0.492124     0.385625     0.816692    Uiso  ? O
   O362       1.0     0.486032     0.349797     0.814009    Uiso  ? O
   O363       1.0     0.543341     0.387462     0.821624    Uiso  ? O
   O364       1.0     0.531277     0.362380     0.797579    Uiso  ? O
   O365       1.0     0.618113     0.550433     0.165627    Uiso  ? O
   O366       1.0     0.635406     0.570428     0.191077    Uiso  ? O
   O367       1.0     0.581156     0.572056     0.194243    Uiso  ? O
   O368       1.0     0.594092     0.569940     0.228133    Uiso  ? O
   O369       1.0     0.587717     0.518514     0.212460    Uiso  ? O
   O370       1.0     0.620555     0.522654     0.228554    Uiso  ? O
   O371       1.0     0.620731     0.524423     0.174560    Uiso  ? O
   O372       1.0     0.636980     0.524697     0.207837    Uiso  ? O
   O373       1.0     0.440240     0.432779     0.132245    Uiso  ? O
   O374       1.0     0.527547     0.433763     0.177685    Uiso  ? O
   O375       1.0     0.450659     0.502322     0.179373    Uiso  ? O
   O376       1.0     0.586964     0.456165     0.119885    Uiso  ? O
   O377       1.0     0.506574     0.411545     0.857088    Uiso  ? O
   O378       1.0     0.563474     0.531487     0.168133    Uiso  ? O
   Zn73       1.0     0.421077     0.404401     0.135836    Uiso  ? Zn
   Zn74       1.0     0.392148     0.365903     0.147311    Uiso  ? Zn
   Zn75       1.0     0.530248     0.421139     0.210544    Uiso  ? Zn
   Zn76       1.0     0.538655     0.395677     0.249290    Uiso  ? Zn
   Zn77       1.0     0.427531     0.506551     0.204949    Uiso  ? Zn
   Zn78       1.0     0.398923     0.513422     0.244497    Uiso  ? Zn
   Zn79       1.0     0.613082     0.433703     0.116359    Uiso  ? Zn
   Zn80       1.0     0.657283     0.410799     0.116482    Uiso  ? Zn
   Zn81       1.0     0.514334     0.382108     0.841850    Uiso  ? Zn
   Zn82       1.0     0.519633     0.339763     0.820794    Uiso  ? Zn
   Zn83       1.0     0.591508     0.540438     0.186300    Uiso  ? Zn
   Zn84       1.0     0.623863     0.555104     0.219598    Uiso  ? Zn
   C673       1.0     0.569123     0.632028     0.844151    Uiso  ? C
   C674       1.0     0.551379     0.639582     0.828450    Uiso  ? C
   C675       1.0     0.548244     0.662121     0.823881    Uiso  ? C
   H409       1.0     0.559963     0.674463     0.830034    Uiso  ? H
   C676       1.0     0.530326     0.669222     0.810960    Uiso  ? C
   H410       1.0     0.528542     0.686773     0.807227    Uiso  ? H
   C677       1.0     0.514739     0.653817     0.803393    Uiso  ? C
   H411       1.0     0.501468     0.659320     0.792222    Uiso  ? H
   C678       1.0     0.517966     0.630927     0.807155    Uiso  ? C
   C679       1.0     0.536516     0.624070     0.819585    Uiso  ? C
   H412       1.0     0.538776     0.606995     0.823145    Uiso  ? H
   C680       1.0     0.502573     0.614077     0.798429    Uiso  ? C
   C681       1.0     0.607920     0.597636     0.833083    Uiso  ? C
   C682       1.0     0.614365     0.585676     0.812709    Uiso  ? C
   C683       1.0     0.628665     0.595571     0.797152    Uiso  ? C
   H413       1.0     0.635627     0.612037     0.800090    Uiso  ? H
   C684       1.0     0.633952     0.584484     0.777798    Uiso  ? C
   H414       1.0     0.644304     0.592127     0.765618    Uiso  ? H
   C685       1.0     0.626005     0.563099     0.773825    Uiso  ? C
   H415       1.0     0.629801     0.554353     0.758244    Uiso  ? H
   C686       1.0     0.613171     0.551844     0.790042    Uiso  ? C
   C687       1.0     0.605994     0.564106     0.808874    Uiso  ? C
   H416       1.0     0.594557     0.557027     0.820227    Uiso  ? H
   C688       1.0     0.604996     0.528921     0.786724    Uiso  ? C
   C689       1.0     0.626804     0.605401     0.100069    Uiso  ? C
   C690       1.0     0.640129     0.598680     0.119423    Uiso  ? C
   C691       1.0     0.659729     0.609823     0.124646    Uiso  ? C
   H417       1.0     0.665900     0.622826     0.113126    Uiso  ? H
   C692       1.0     0.670962     0.604844     0.144583    Uiso  ? C
   H418       1.0     0.685880     0.613811     0.149629    Uiso  ? H
   C693       1.0     0.662243     0.589571     0.158864    Uiso  ? C
   H419       1.0     0.671880     0.585937     0.173736    Uiso  ? H
   C694       1.0     0.642700     0.578400     0.153751    Uiso  ? C
   C695       1.0     0.632069     0.582067     0.133940    Uiso  ? C
   H420       1.0     0.616466     0.574290     0.130741    Uiso  ? H
   C696       1.0     0.632379     0.565224     0.170758    Uiso  ? C
   C697       1.0     0.575746     0.645992     0.894890    Uiso  ? C
   C698       1.0     0.561801     0.662328     0.107875    Uiso  ? C
   C699       1.0     0.562060     0.685627     0.104901    Uiso  ? C
   H421       1.0     0.573005     0.691585     0.893564    Uiso  ? H
   C700       1.0     0.549061     0.699296     0.117817    Uiso  ? C
   H422       1.0     0.549525     0.717533     0.114675    Uiso  ? H
   C701       1.0     0.534504     0.690274     0.133343    Uiso  ? C
   H423       1.0     0.523278     0.700055     0.142615    Uiso  ? H
   C702       1.0     0.533388     0.667276     0.136362    Uiso  ? C
   C703       1.0     0.546733     0.653561     0.123801    Uiso  ? C
   H424       1.0     0.545617     0.636023     0.125644    Uiso  ? H
   C704       1.0     0.517123     0.657854     0.152306    Uiso  ? C
   C705       1.0     0.452906     0.554456     0.761179    Uiso  ? C
   C706       1.0     0.436282     0.538393     0.753429    Uiso  ? C
   C707       1.0     0.424985     0.543224     0.733546    Uiso  ? C
   H425       1.0     0.429862     0.556861     0.723093    Uiso  ? H
   C708       1.0     0.407553     0.529088     0.727074    Uiso  ? C
   H426       1.0     0.398503     0.532950     0.712142    Uiso  ? H
   C709       1.0     0.401238     0.511800     0.740568    Uiso  ? C
   H427       1.0     0.387751     0.502902     0.734681    Uiso  ? H
   C710       1.0     0.413206     0.506417     0.759385    Uiso  ? C
   C711       1.0     0.430820     0.520099     0.766205    Uiso  ? C
   H428       1.0     0.439934     0.515589     0.780826    Uiso  ? H
   C712       1.0     0.405612     0.487687     0.773454    Uiso  ? C
   C713       1.0     0.503074     0.561900     0.755498    Uiso  ? C
   C714       1.0     0.519755     0.549688     0.742666    Uiso  ? C
   C715       1.0     0.523612     0.555704     0.720279    Uiso  ? C
   H429       1.0     0.513883     0.567768     0.712319    Uiso  ? H
   C716       1.0     0.541810     0.546843     0.709088    Uiso  ? C
   H430       1.0     0.544341     0.550511     0.691704    Uiso  ? H
   C717       1.0     0.555476     0.531943     0.719457    Uiso  ? C
   H431       1.0     0.569947     0.526296     0.710546    Uiso  ? H
   C718       1.0     0.551597     0.525679     0.741919    Uiso  ? C
   C719       1.0     0.532909     0.533342     0.752608    Uiso  ? C
   H432       1.0     0.530399     0.528564     0.769135    Uiso  ? H
   C720       1.0     0.566647     0.510811     0.753720    Uiso  ? C
   C721       1.0     0.433377     0.591042     0.793761    Uiso  ? C
   C722       1.0     0.411215     0.595977     0.802076    Uiso  ? C
   C723       1.0     0.395772     0.607993     0.789010    Uiso  ? C
   H433       1.0     0.400472     0.612994     0.772213    Uiso  ? H
   C724       1.0     0.375598     0.615390     0.797734    Uiso  ? C
   H434       1.0     0.363866     0.626249     0.788582    Uiso  ? H
   C725       1.0     0.369768     0.608941     0.819658    Uiso  ? C
   H435       1.0     0.355228     0.615749     0.827640    Uiso  ? H
   C726       1.0     0.384418     0.595953     0.832307    Uiso  ? C
   C727       1.0     0.405031     0.589209     0.823469    Uiso  ? C
   H436       1.0     0.416557     0.579977     0.833516    Uiso  ? H
   C728       1.0     0.378168     0.589879     0.854783    Uiso  ? C
   C729       1.0     0.580165     0.446847     0.773965    Uiso  ? C
   C730       1.0     0.574829     0.422798     0.771313    Uiso  ? C
   C731       1.0     0.579573     0.412204     0.751124    Uiso  ? C
   H437       1.0     0.587861     0.420861     0.737119    Uiso  ? H
   C732       1.0     0.572736     0.390061     0.747991    Uiso  ? C
   H438       1.0     0.576254     0.381703     0.732688    Uiso  ? H
   C733       1.0     0.560348     0.379075     0.764499    Uiso  ? C
   H439       1.0     0.552949     0.363704     0.761230    Uiso  ? H
   C734       1.0     0.556854     0.389642     0.784925    Uiso  ? C
   C735       1.0     0.564233     0.410850     0.788258    Uiso  ? C
   H440       1.0     0.561361     0.419151     0.804103    Uiso  ? H
   C736       1.0     0.543327     0.379319     0.802054    Uiso  ? C
   C737       1.0     0.621672     0.470373     0.804420    Uiso  ? C
   C738       1.0     0.638150     0.461007     0.819635    Uiso  ? C
   C739       1.0     0.660449     0.461276     0.813690    Uiso  ? C
   H441       1.0     0.665750     0.467911     0.797873    Uiso  ? H
   C740       1.0     0.676822     0.454139     0.828564    Uiso  ? C
   H442       1.0     0.693878     0.453681     0.822758    Uiso  ? H
   C741       1.0     0.670457     0.445193     0.848782    Uiso  ? C
   H443       1.0     0.683585     0.440563     0.860520    Uiso  ? H
   C742       1.0     0.648023     0.445222     0.855630    Uiso  ? C
   C743       1.0     0.632228     0.452291     0.840481    Uiso  ? C
   H444       1.0     0.615381     0.454286     0.845695    Uiso  ? H
   C744       1.0     0.641129     0.436997     0.878155    Uiso  ? C
   C745       1.0     0.354431     0.547254     0.877678    Uiso  ? C
   C746       1.0     0.345862     0.527233     0.866421    Uiso  ? C
   C747       1.0     0.324254     0.519751     0.870729    Uiso  ? C
   H445       1.0     0.312544     0.529440     0.881389    Uiso  ? H
   C748       1.0     0.316837     0.499916     0.860900    Uiso  ? C
   H446       1.0     0.299949     0.494991     0.863491    Uiso  ? H
   C749       1.0     0.330835     0.487381     0.847268    Uiso  ? C
   H447       1.0     0.324117     0.472557     0.839479    Uiso  ? H
   C750       1.0     0.352030     0.494727     0.842615    Uiso  ? C
   C751       1.0     0.359513     0.514465     0.852340    Uiso  ? C
   H448       1.0     0.376985     0.519415     0.849475    Uiso  ? H
   C752       1.0     0.367239     0.481957     0.828582    Uiso  ? C
   C753       1.0     0.384356     0.618434     0.116550    Uiso  ? C
   C754       1.0     0.393340     0.636324     0.129890    Uiso  ? C
   C755       1.0     0.379550     0.653918     0.136131    Uiso  ? C
   H449       1.0     0.362872     0.654729     0.129334    Uiso  ? H
   C756       1.0     0.387746     0.670500     0.150241    Uiso  ? C
   H450       1.0     0.377142     0.684202     0.155087    Uiso  ? H
   C757       1.0     0.409478     0.669255     0.157899    Uiso  ? C
   H451       1.0     0.415477     0.682549     0.168036    Uiso  ? H
   C758       1.0     0.423254     0.651853     0.151868    Uiso  ? C
   C759       1.0     0.414968     0.635854     0.136860    Uiso  ? C
   H452       1.0     0.425030     0.621778     0.130965    Uiso  ? H
   C760       1.0     0.446198     0.649791     0.159684    Uiso  ? C
   C761       1.0     0.519041     0.631456     0.198382    Uiso  ? C
   C762       1.0     0.537472     0.623147     0.212765    Uiso  ? C
   C763       1.0     0.538697     0.630810     0.234788    Uiso  ? C
   H453       1.0     0.528635     0.644168     0.240476    Uiso  ? H
   C764       1.0     0.555327     0.622856     0.248896    Uiso  ? C
   H454       1.0     0.556372     0.629170     0.265642    Uiso  ? H
   C765       1.0     0.569869     0.606982     0.241405    Uiso  ? C
   H455       1.0     0.583368     0.601671     0.252646    Uiso  ? H
   C766       1.0     0.567825     0.598046     0.220570    Uiso  ? C
   C767       1.0     0.551245     0.605709     0.206075    Uiso  ? C
   H456       1.0     0.548494     0.598006     0.189584    Uiso  ? H
   C768       1.0     0.581762     0.579132     0.214243    Uiso  ? C
   O379       1.0     0.570586     0.611417     0.849342    Uiso  ? O
   O380       1.0     0.582996     0.646154     0.851971    Uiso  ? O
   O381       1.0     0.590247     0.592927     0.843601    Uiso  ? O
   O382       1.0     0.620404     0.613208     0.840203    Uiso  ? O
   O383       1.0     0.615858     0.590355     0.890456    Uiso  ? O
   O384       1.0     0.626391     0.624691     0.896107    Uiso  ? O
   O385       1.0     0.574723     0.625344     0.898375    Uiso  ? O
   O386       1.0     0.587301     0.653880     0.878570    Uiso  ? O
   O387       1.0     0.467172     0.548486     0.776295    Uiso  ? O
   O388       1.0     0.450036     0.574657     0.756213    Uiso  ? O
   O389       1.0     0.495297     0.552829     0.773258    Uiso  ? O
   O390       1.0     0.495500     0.580634     0.749123    Uiso  ? O
   O391       1.0     0.505631     0.593622     0.801810    Uiso  ? O
   O392       1.0     0.485407     0.620011     0.787524    Uiso  ? O
   O393       1.0     0.448076     0.583755     0.806500    Uiso  ? O
   O394       1.0     0.438188     0.594402     0.773489    Uiso  ? O
   O395       1.0     0.581496     0.455222     0.793290    Uiso  ? O
   O396       1.0     0.585884     0.458110     0.757715    Uiso  ? O
   O397       1.0     0.601230     0.465915     0.807713    Uiso  ? O
   O398       1.0     0.627353     0.482774     0.788612    Uiso  ? O
   O399       1.0     0.596987     0.517517     0.802575    Uiso  ? O
   O400       1.0     0.607148     0.520195     0.767802    Uiso  ? O
   O401       1.0     0.559691     0.498726     0.769111    Uiso  ? O
   O402       1.0     0.587630     0.512172     0.750223    Uiso  ? O
   O403       1.0     0.374695     0.552988     0.875628    Uiso  ? O
   O404       1.0     0.341393     0.559199     0.889656    Uiso  ? O
   O405       1.0     0.388280     0.574014     0.864344    Uiso  ? O
   O406       1.0     0.363507     0.601040     0.865075    Uiso  ? O
   O407       1.0     0.396758     0.608390     0.102894    Uiso  ? O
   O408       1.0     0.365197     0.610508     0.119643    Uiso  ? O
   O409       1.0     0.378208     0.561132     0.125735    Uiso  ? O
   O410       1.0     0.342954     0.565581     0.115701    Uiso  ? O
   O411       1.0     0.460545     0.638617     0.148601    Uiso  ? O
   O412       1.0     0.451112     0.657809     0.178598    Uiso  ? O
   O413       1.0     0.516465     0.636699     0.154609    Uiso  ? O
   O414       1.0     0.503006     0.670326     0.162275    Uiso  ? O
   O415       1.0     0.516766     0.623307     0.179238    Uiso  ? O
   O416       1.0     0.503393     0.642841     0.207115    Uiso  ? O
   O417       1.0     0.471376     0.606618     0.189640    Uiso  ? O
   O418       1.0     0.478376     0.634756     0.212885    Uiso  ? O
   O419       1.0     0.398456     0.437926     0.831735    Uiso  ? O
   O420       1.0     0.364602     0.439688     0.817846    Uiso  ? O
   O421       1.0     0.419169     0.431399     0.814376    Uiso  ? O
   O422       1.0     0.400755     0.427781     0.783129    Uiso  ? O
   O423       1.0     0.419678     0.478355     0.785705    Uiso  ? O
   O424       1.0     0.385340     0.482671     0.774618    Uiso  ? O
   O425       1.0     0.387696     0.483807     0.831305    Uiso  ? O
   O426       1.0     0.359490     0.466891     0.815333    Uiso  ? O
   O427       1.0     0.571243     0.571420     0.892266    Uiso  ? O
   O428       1.0     0.485612     0.555826     0.829945    Uiso  ? O
   O429       1.0     0.554169     0.496894     0.823118    Uiso  ? O
   O430       1.0     0.425182     0.562717     0.100269    Uiso  ? O
   O431       1.0     0.487518     0.591247     0.140517    Uiso  ? O
   O432       1.0     0.439579     0.476604     0.835174    Uiso  ? O
   Zn85       1.0     0.585591     0.599279     0.878407    Uiso  ? Zn
   Zn86       1.0     0.614824     0.636800     0.865525    Uiso  ? Zn
   Zn87       1.0     0.479138     0.570752     0.800194    Uiso  ? Zn
   Zn88       1.0     0.470787     0.602027     0.761544    Uiso  ? Zn
   Zn89       1.0     0.576978     0.489676     0.797438    Uiso  ? Zn
   Zn90       1.0     0.608105     0.485439     0.760321    Uiso  ? Zn
   Zn91       1.0     0.393044     0.573389     0.898925    Uiso  ? Zn
   Zn92       1.0     0.348003     0.592598     0.896212    Uiso  ? Zn
   Zn93       1.0     0.486062     0.619832     0.161037    Uiso  ? Zn
   Zn94       1.0     0.482299     0.662857     0.188858    Uiso  ? Zn
   Zn95       1.0     0.412728     0.465502     0.816107    Uiso  ? Zn
   Zn96       1.0     0.375270     0.451420     0.787296    Uiso  ? Zn
   H457       1.0     0.487353     0.565309     0.842693    Uiso  ? H
   H458       1.0     0.488396     0.540492     0.830728    Uiso  ? H
   H459       1.0     0.533342     0.448070     0.172686    Uiso  ? H
   H460       1.0     0.519949     0.424000     0.167280    Uiso  ? H
   H461       1.0     0.563343     0.518051     0.159928    Uiso  ? H
   H462       1.0     0.550542     0.540436     0.167064    Uiso  ? H
   H463       1.0     0.572056     0.451084     0.121550    Uiso  ? H
   H464       1.0     0.589820     0.471669     0.121306    Uiso  ? H
   H465       1.0     0.443966     0.468380     0.848102    Uiso  ? H
   H466       1.0     0.447738     0.489731     0.830136    Uiso  ? H
   H467       1.0     0.452641     0.431967     0.122466    Uiso  ? H
   H468       1.0     0.439157     0.444198     0.143290    Uiso  ? H
   H469       1.0     0.518803     0.420796     0.860570    Uiso  ? H
   H470       1.0     0.491858     0.414403     0.863003    Uiso  ? H
   H471       1.0     0.433298     0.565706     0.113546    Uiso  ? H
   H472       1.0     0.432215     0.554105     0.889212    Uiso  ? H
   H473       1.0     0.452792     0.511903     0.167527    Uiso  ? H
   H474       1.0     0.460208     0.489865     0.181640    Uiso  ? H
   H475       1.0     0.498093     0.591105     0.128197    Uiso  ? H
   H476       1.0     0.478761     0.578122     0.143333    Uiso  ? H
   H477       1.0     0.540917     0.504794     0.818289    Uiso  ? H
   H478       1.0     0.554586     0.490906     0.837598    Uiso  ? H
   H479       1.0     0.566526     0.570454     0.106441    Uiso  ? H
   H480       1.0     0.569621     0.559092     0.882117    Uiso  ? H
   C769       1.0     0.455027     0.246014     0.298266    Uiso  ? C
   H481       1.0     0.441020     0.253688     0.290416    Uiso  ? H
   C770       1.0     0.487920     0.235275     0.305628    Uiso  ? C
   N1         1.0     0.475802     0.246512     0.290547    Uiso  ? N
   C771       1.0     0.484136     0.262055     0.274018    Uiso  ? C
   H482       1.0     0.497820     0.253878     0.264340    Uiso  ? H
   H483       1.0     0.470228     0.265894     0.262875    Uiso  ? H
   C772       1.0     0.493182     0.282022     0.284895    Uiso  ? C
   C773       1.0     0.480016     0.300895     0.287637    Uiso  ? C
   C774       1.0     0.514544     0.282065     0.293055    Uiso  ? C
   C775       1.0     0.487401     0.319853     0.298066    Uiso  ? C
   H484       1.0     0.463305     0.300593     0.281447    Uiso  ? H
   C776       1.0     0.522556     0.301118     0.304391    Uiso  ? C
   H485       1.0     0.524809     0.267113     0.292265    Uiso  ? H
   C777       1.0     0.509522     0.320313     0.306159    Uiso  ? C
   H486       1.0     0.476635     0.334137     0.299876    Uiso  ? H
   H487       1.0     0.538670     0.302365     0.311125    Uiso  ? H
   C778       1.0     0.518282     0.340205     0.317980    Uiso  ? C
   H488       1.0     0.504825     0.350723     0.323568    Uiso  ? H
   H489       1.0     0.528096     0.334104     0.332632    Uiso  ? H
   N2         1.0     0.531814     0.353272     0.302915    Uiso  ? N
   C779       1.0     0.525059     0.367465     0.286883    Uiso  ? C
   N3         1.0     0.541987     0.374348     0.274486    Uiso  ? N
   C780       1.0     0.560050     0.363000     0.281433    Uiso  ? C
   H490       1.0     0.577087     0.364455     0.275737    Uiso  ? H
   C781       1.0     0.554011     0.350599     0.299266    Uiso  ? C
   H491       1.0     0.564945     0.340122     0.308133    Uiso  ? H
   N4         1.0     0.475187     0.227513     0.322308    Uiso  ? N
   C782       1.0     0.454638     0.234159     0.317578    Uiso  ? C
   H492       1.0     0.440265     0.229328     0.326714    Uiso  ? H
   H493       1.0     0.505319     0.232806     0.304491    Uiso  ? H
   H494       1.0     0.508530     0.373444     0.286176    Uiso  ? H
   C783       1.0     0.407689     0.742033     0.326469    Uiso  ? C
   H495       1.0     0.394797     0.739735     0.313722    Uiso  ? H
   C784       1.0     0.435980     0.737009     0.347363    Uiso  ? C
   N5         1.0     0.424491     0.727668     0.330536    Uiso  ? N
   C785       1.0     0.429975     0.707548     0.317839    Uiso  ? C
   H496       1.0     0.437562     0.695733     0.329085    Uiso  ? H
   H497       1.0     0.414180     0.701308     0.310487    Uiso  ? H
   C786       1.0     0.446064     0.712863     0.299572    Uiso  ? C
   C787       1.0     0.439225     0.725426     0.281409    Uiso  ? C
   C788       1.0     0.468296     0.704975     0.300033    Uiso  ? C
   C789       1.0     0.454389     0.731088     0.264903    Uiso  ? C
   H498       1.0     0.422157     0.731652     0.279154    Uiso  ? H
   C790       1.0     0.482874     0.709991     0.283170    Uiso  ? C
   H499       1.0     0.474449     0.695034     0.313527    Uiso  ? H
   C791       1.0     0.476413     0.723495     0.265753    Uiso  ? C
   H500       1.0     0.449812     0.742699     0.252848    Uiso  ? H
   H501       1.0     0.499339     0.703587     0.284671    Uiso  ? H
   C792       1.0     0.492688     0.730774     0.248176    Uiso  ? C
   H502       1.0     0.492392     0.749043     0.245627    Uiso  ? H
   H503       1.0     0.510042     0.726072     0.253516    Uiso  ? H
   N6         1.0     0.488155     0.719608     0.226933    Uiso  ? N
   C793       1.0     0.487687     0.697825     0.223373    Uiso  ? C
   N7         1.0     0.483162     0.692893     0.202279    Uiso  ? N
   C794       1.0     0.482253     0.712767     0.191882    Uiso  ? C
   H504       1.0     0.481122     0.714564     0.174400    Uiso  ? H
   C795       1.0     0.484445     0.729569     0.207257    Uiso  ? C
   H505       1.0     0.485824     0.747075     0.204249    Uiso  ? H
   N8         1.0     0.426905     0.755904     0.354313    Uiso  ? N
   C796       1.0     0.409554     0.759867     0.340900    Uiso  ? C
   H506       1.0     0.399314     0.774067     0.341036    Uiso  ? H
   H507       1.0     0.450707     0.729825     0.354262    Uiso  ? H
   H508       1.0     0.489830     0.685905     0.235964    Uiso  ? H
   C797       1.0     0.453931     0.648669     0.714752    Uiso  ? C
   H509       1.0     0.441928     0.658772     0.706003    Uiso  ? H
   C798       1.0     0.483650     0.633986     0.726165    Uiso  ? C
   N9         1.0     0.475468     0.648374     0.711348    Uiso  ? N
   C799       1.0     0.487434     0.661582     0.694529    Uiso  ? C
   H510       1.0     0.504395     0.655007     0.693141    Uiso  ? H
   H511       1.0     0.479237     0.659071     0.678303    Uiso  ? H
   C800       1.0     0.487495     0.685095     0.701052    Uiso  ? C
   C801       1.0     0.505040     0.693500     0.713639    Uiso  ? C
   C802       1.0     0.470301     0.699424     0.695545    Uiso  ? C
   C803       1.0     0.505990     0.715718     0.719623    Uiso  ? C
   H512       1.0     0.519056     0.683529     0.718441    Uiso  ? H
   C804       1.0     0.471341     0.721625     0.701592    Uiso  ? C
   H513       1.0     0.456339     0.693834     0.685994    Uiso  ? H
   C805       1.0     0.488021     0.729685     0.714707    Uiso  ? C
   H514       1.0     0.520092     0.721556     0.729025    Uiso  ? H
   H515       1.0     0.458079     0.732226     0.696181    Uiso  ? H
   C806       1.0     0.487771     0.753308     0.722747    Uiso  ? C
   H516       1.0     0.470637     0.759242     0.723903    Uiso  ? H
   H517       1.0     0.495087     0.755330     0.739475    Uiso  ? H
   N10        1.0     0.500115     0.768232     0.707785    Uiso  ? N
   C807       1.0     0.493725     0.776092     0.688055    Uiso  ? C
   N11        1.0     0.510323     0.786757     0.677782    Uiso  ? N
   C808       1.0     0.527421     0.786231     0.692514    Uiso  ? C
   H518       1.0     0.542772     0.793669     0.690557    Uiso  ? H
   C809       1.0     0.521060     0.775192     0.711176    Uiso  ? C
   H519       1.0     0.531045     0.771539     0.724938    Uiso  ? H
   N12        1.0     0.467864     0.624652     0.738253    Uiso  ? N
   C810       1.0     0.449260     0.633784     0.731143    Uiso  ? C
   H520       1.0     0.433410     0.630461     0.737647    Uiso  ? H
   H521       1.0     0.500890     0.630841     0.727848    Uiso  ? H
   H522       1.0     0.478058     0.771577     0.680184    Uiso  ? H
   C811       1.0     0.556578     0.282483     0.663427    Uiso  ? C
   H523       1.0     0.554827     0.299174     0.669114    Uiso  ? H
   C812       1.0     0.568715     0.249857     0.658495    Uiso  ? C
   N13        1.0     0.569437     0.267053     0.672644    Uiso  ? N
   C813       1.0     0.582771     0.269381     0.692504    Uiso  ? C
   H524       1.0     0.594299     0.254409     0.692813    Uiso  ? H
   H525       1.0     0.592373     0.284176     0.691507    Uiso  ? H
   C814       1.0     0.567601     0.269098     0.712355    Uiso  ? C
   C815       1.0     0.560237     0.248985     0.721352    Uiso  ? C
   C816       1.0     0.558303     0.289189     0.720796    Uiso  ? C
   C817       1.0     0.546384     0.248833     0.739505    Uiso  ? C
   H526       1.0     0.564489     0.233349     0.714476    Uiso  ? H
   C818       1.0     0.543440     0.289306     0.738389    Uiso  ? C
   H527       1.0     0.563613     0.304410     0.713840    Uiso  ? H
   C819       1.0     0.537503     0.268984     0.747869    Uiso  ? C
   H528       1.0     0.541185     0.233205     0.745276    Uiso  ? H
   H529       1.0     0.536929     0.304924     0.745217    Uiso  ? H
   C820       1.0     0.519849     0.267972     0.765620    Uiso  ? C
   H530       1.0     0.503552     0.274612     0.759098    Uiso  ? H
   H531       1.0     0.517824     0.250423     0.770325    Uiso  ? H
   N14        1.0     0.525932     0.281755     0.784330    Uiso  ? N
   C821       1.0     0.519767     0.302742     0.788089    Uiso  ? C
   N15        1.0     0.527770     0.310678     0.807614    Uiso  ? N
   C822       1.0     0.539869     0.293930     0.816272    Uiso  ? C
   H532       1.0     0.550688     0.295339     0.830497    Uiso  ? H
   C823       1.0     0.538844     0.276377     0.802087    Uiso  ? C
   H533       1.0     0.547328     0.260845     0.804564    Uiso  ? H
   N16        1.0     0.556434     0.253767     0.640443    Uiso  ? N
   C824       1.0     0.548803     0.274360     0.643384    Uiso  ? C
   H534       1.0     0.539735     0.283951     0.631638    Uiso  ? H
   H535       1.0     0.579509     0.235801     0.661036    Uiso  ? H
   H536       1.0     0.508315     0.311360     0.777231    Uiso  ? H
   C825       1.0     0.714519     0.334194     0.530595    Uiso  ? C
   H537       1.0     0.696480     0.331862     0.530576    Uiso  ? H
   C826       1.0     0.749631     0.327648     0.528137    Uiso  ? C
   N17        1.0     0.729523     0.317689     0.529784    Uiso  ? N
   C827       1.0     0.724551     0.293644     0.529909    Uiso  ? C
   H538       1.0     0.737070     0.284865     0.540508    Uiso  ? H
   H539       1.0     0.707623     0.291363     0.537714    Uiso  ? H
   C828       1.0     0.723938     0.282721     0.507361    Uiso  ? C
   C829       1.0     0.711105     0.291726     0.490405    Uiso  ? C
   C830       1.0     0.732670     0.261822     0.504259    Uiso  ? C
   C831       1.0     0.709568     0.281441     0.469631    Uiso  ? C
   H540       1.0     0.703165     0.308270     0.492466    Uiso  ? H
   C832       1.0     0.730080     0.250251     0.484134    Uiso  ? C
   H541       1.0     0.742730     0.255065     0.516627    Uiso  ? H
   C833       1.0     0.718895     0.260478     0.466403    Uiso  ? C
   H542       1.0     0.702598     0.290075     0.455559    Uiso  ? H
   H543       1.0     0.736871     0.233642     0.482520    Uiso  ? H
   C834       1.0     0.717634     0.248950     0.444517    Uiso  ? C
   H544       1.0     0.724473     0.258866     0.430919    Uiso  ? H
   H545       1.0     0.728028     0.233678     0.444988    Uiso  ? H
   N18        1.0     0.694546     0.242429     0.439721    Uiso  ? N
   C835       1.0     0.682772     0.226335     0.448744    Uiso  ? C
   N19        1.0     0.661025     0.227126     0.442207    Uiso  ? N
   C836       1.0     0.660049     0.245735     0.429907    Uiso  ? C
   H546       1.0     0.644395     0.251785     0.421945    Uiso  ? H
   C837       1.0     0.680583     0.254535     0.427202    Uiso  ? C
   H547       1.0     0.683821     0.270012     0.418542    Uiso  ? H
   N20        1.0     0.747571     0.349848     0.528661    Uiso  ? N
   C838       1.0     0.725715     0.354067     0.530769    Uiso  ? C
   H548       1.0     0.717667     0.370779     0.530791    Uiso  ? H
   H549       1.0     0.765314     0.319640     0.524753    Uiso  ? H
   H550       1.0     0.689653     0.214249     0.460292    Uiso  ? H
   C839       1.0     0.603316     0.683853     0.492349    Uiso  ? C
   H551       1.0     0.601914     0.667785     0.500898    Uiso  ? H
   C840       1.0     0.614075     0.712727     0.473522    Uiso  ? C
   N21        1.0     0.618675     0.690929     0.477139    Uiso  ? N
   C841       1.0     0.636627     0.676949     0.468906    Uiso  ? C
   H552       1.0     0.632732     0.659577     0.471807    Uiso  ? H
   H553       1.0     0.638881     0.678540     0.450204    Uiso  ? H
   C842       1.0     0.657492     0.682069     0.481095    Uiso  ? C
   C843       1.0     0.675671     0.693050     0.471255    Uiso  ? C
   C844       1.0     0.659958     0.675648     0.503165    Uiso  ? C
   C845       1.0     0.694961     0.697851     0.483094    Uiso  ? C
   H554       1.0     0.674601     0.696992     0.453567    Uiso  ? H
   C846       1.0     0.678981     0.681120     0.515728    Uiso  ? C
   H555       1.0     0.647286     0.666494     0.510945    Uiso  ? H
   C847       1.0     0.696214     0.692515     0.505557    Uiso  ? C
   H556       1.0     0.708582     0.707068     0.475844    Uiso  ? H
   H557       1.0     0.679835     0.676433     0.532880    Uiso  ? H
   C848       1.0     0.715916     0.700277     0.519808    Uiso  ? C
   H558       1.0     0.727339     0.709816     0.509750    Uiso  ? H
   H559       1.0     0.709430     0.710543     0.533221    Uiso  ? H
   N22        1.0     0.726972     0.680644     0.529073    Uiso  ? N
   C849       1.0     0.742524     0.667823     0.519641    Uiso  ? C
   N23        1.0     0.749915     0.652367     0.533705    Uiso  ? N
   C850       1.0     0.737559     0.654726     0.552384    Uiso  ? C
   H560       1.0     0.740105     0.644701     0.566359    Uiso  ? H
   C851       1.0     0.723567     0.672633     0.549639    Uiso  ? C
   H561       1.0     0.711806     0.678745     0.561564    Uiso  ? H
   N24        1.0     0.596124     0.719240     0.484446    Uiso  ? N
   C852       1.0     0.589559     0.701140     0.496785    Uiso  ? C
   H562       1.0     0.575382     0.701841     0.507815    Uiso  ? H
   H563       1.0     0.623477     0.723897     0.462625    Uiso  ? H
   H564       1.0     0.748499     0.669946     0.502470    Uiso  ? H
   C853       1.0     0.269916     0.334529     0.435369    Uiso  ? C
   H565       1.0     0.278549     0.325907     0.422242    Uiso  ? H
   C854       1.0     0.256846     0.342458     0.467492    Uiso  ? C
   N25        1.0     0.270873     0.328949     0.457196    Uiso  ? N
   C855       1.0     0.282774     0.310132     0.466654    Uiso  ? C
   H566       1.0     0.274831     0.305278     0.482413    Uiso  ? H
   H567       1.0     0.281663     0.296179     0.454711    Uiso  ? H
   C856       1.0     0.305741     0.317049     0.471667    Uiso  ? C
   C857       1.0     0.310315     0.331393     0.489763    Uiso  ? C
   C858       1.0     0.322789     0.309474     0.458297    Uiso  ? C
   C859       1.0     0.332337     0.337864     0.494108    Uiso  ? C
   H568       1.0     0.297350     0.336272     0.500428    Uiso  ? H
   C860       1.0     0.344829     0.317195     0.461856    Uiso  ? C
   H569       1.0     0.319742     0.299741     0.443396    Uiso  ? H
   C861       1.0     0.349681     0.331639     0.479551    Uiso  ? C
   H570       1.0     0.336118     0.348708     0.508025    Uiso  ? H
   H571       1.0     0.357684     0.311134     0.451189    Uiso  ? H
   C862       1.0     0.373607     0.337695     0.484175    Uiso  ? C
   H572       1.0     0.382194     0.339739     0.467624    Uiso  ? H
   H573       1.0     0.373794     0.353649     0.493093    Uiso  ? H
   N26        1.0     0.384380     0.320181     0.496963    Uiso  ? N
   C863       1.0     0.396134     0.303140     0.488418    Uiso  ? C
   N27        1.0     0.403455     0.289656     0.504796    Uiso  ? N
   C864       1.0     0.395792     0.298435     0.523758    Uiso  ? C
   H574       1.0     0.398404     0.291892     0.540136    Uiso  ? H
   C865       1.0     0.384034     0.317539     0.519024    Uiso  ? C
   H575       1.0     0.376752     0.328644     0.530779    Uiso  ? H
   N28        1.0     0.248278     0.357488     0.453762    Uiso  ? N
   C866       1.0     0.255629     0.352356     0.433065    Uiso  ? C
   H576       1.0     0.249761     0.359381     0.417289    Uiso  ? H
   H577       1.0     0.253651     0.342987     0.485280    Uiso  ? H
   H578       1.0     0.399781     0.300725     0.471224    Uiso  ? H
   C867       1.0     0.283308     0.656196     0.456429    Uiso  ? C
   H579       1.0     0.301014     0.656940     0.453218    Uiso  ? H
   C868       1.0     0.250234     0.666689     0.463708    Uiso  ? C
   N29        1.0     0.271111     0.674342     0.460302    Uiso  ? N
   C869       1.0     0.279075     0.697043     0.461848    Uiso  ? C
   H580       1.0     0.290868     0.699599     0.447714    Uiso  ? H
   H581       1.0     0.264032     0.708437     0.460762    Uiso  ? H
   C870       1.0     0.290084     0.700978     0.483659    Uiso  ? C
   C871       1.0     0.278204     0.708022     0.502450    Uiso  ? C
   C872       1.0     0.312696     0.695879     0.485895    Uiso  ? C
   C873       1.0     0.289438     0.710823     0.522481    Uiso  ? C
   H582       1.0     0.260504     0.709097     0.501053    Uiso  ? H
   C874       1.0     0.323698     0.699194     0.506410    Uiso  ? C
   H583       1.0     0.322533     0.689701     0.472257    Uiso  ? H
   C875       1.0     0.311980     0.706805     0.524678    Uiso  ? C
   H584       1.0     0.279851     0.716975     0.535902    Uiso  ? H
   H585       1.0     0.341451     0.697504     0.507289    Uiso  ? H
   C876       1.0     0.323431     0.708943     0.546746    Uiso  ? C
   H586       1.0     0.312665     0.702345     0.559772    Uiso  ? H
   H587       1.0     0.339434     0.699212     0.546212    Uiso  ? H
   N30        1.0     0.328037     0.732279     0.550765    Uiso  ? N
   C877       1.0     0.344620     0.744321     0.541409    Uiso  ? C
   N31        1.0     0.345424     0.764798     0.549529    Uiso  ? N
   C878       1.0     0.327651     0.766189     0.563337    Uiso  ? C
   H588       1.0     0.322832     0.781358     0.572456    Uiso  ? H
   C879       1.0     0.316647     0.746017     0.563929    Uiso  ? C
   H589       1.0     0.302723     0.741901     0.574619    Uiso  ? H
   N32        1.0     0.248372     0.645008     0.460750    Uiso  ? N
   C880       1.0     0.269114     0.638265     0.455934    Uiso  ? C
   H590       1.0     0.272619     0.620547     0.452796    Uiso  ? H
   H591       1.0     0.236104     0.677171     0.466509    Uiso  ? H
   H592       1.0     0.354877     0.738642     0.527907    Uiso  ? H
   C881       1.0     0.659469     0.586775     0.269018    Uiso  ? C
   H593       1.0     0.661926     0.598482     0.282254    Uiso  ? H
   C882       1.0     0.663991     0.558250     0.248392    Uiso  ? C
   N33        1.0     0.673427     0.569924     0.264295    Uiso  ? N
   C883       1.0     0.692875     0.562549     0.276934    Uiso  ? C
   H594       1.0     0.702624     0.551688     0.265566    Uiso  ? H
   H595       1.0     0.702402     0.577765     0.280072    Uiso  ? H
   C884       1.0     0.685476     0.550590     0.297258    Uiso  ? C
   C885       1.0     0.684187     0.562084     0.317179    Uiso  ? C
   C886       1.0     0.680801     0.528308     0.296489    Uiso  ? C
   C887       1.0     0.679037     0.551235     0.337005    Uiso  ? C
   H596       1.0     0.687391     0.580921     0.316913    Uiso  ? H
   C888       1.0     0.674142     0.517332     0.316374    Uiso  ? C
   H597       1.0     0.681229     0.519460     0.280940    Uiso  ? H
   C889       1.0     0.673348     0.528686     0.336556    Uiso  ? C
   H598       1.0     0.678485     0.559968     0.352903    Uiso  ? H
   H599       1.0     0.669448     0.500105     0.315240    Uiso  ? H
   C890       1.0     0.667132     0.515217     0.356375    Uiso  ? C
   H600       1.0     0.661160     0.527028     0.369930    Uiso  ? H
   H601       1.0     0.653039     0.503793     0.351949    Uiso  ? H
   N34        1.0     0.685625     0.502858     0.365365    Uiso  ? N
   C891       1.0     0.703287     0.511524     0.375771    Uiso  ? C
   N35        1.0     0.716530     0.496251     0.384735    Uiso  ? N
   C892       1.0     0.706527     0.476647     0.380096    Uiso  ? C
   H602       1.0     0.712873     0.460119     0.384049    Uiso  ? H
   C893       1.0     0.687665     0.480815     0.368260    Uiso  ? C
   H603       1.0     0.675499     0.468422     0.363877    Uiso  ? H
   N36        1.0     0.644108     0.567173     0.242145    Uiso  ? N
   C894       1.0     0.641313     0.585420     0.254845    Uiso  ? C
   H604       1.0     0.626918     0.596039     0.253742    Uiso  ? H
   H605       1.0     0.669927     0.542218     0.242554    Uiso  ? H
   H606       1.0     0.706081     0.529087     0.377269    Uiso  ? H
   C895       1.0     0.357312     0.540173     0.293242    Uiso  ? C
   H607       1.0     0.350225     0.553337     0.302667    Uiso  ? H
   C896       1.0     0.364493     0.508163     0.280322    Uiso  ? C
   N37        1.0     0.352463     0.519046     0.295887    Uiso  ? N
   C897       1.0     0.334919     0.510185     0.309226    Uiso  ? C
   H608       1.0     0.337986     0.492936     0.314318    Uiso  ? H
   H609       1.0     0.334129     0.520003     0.324975    Uiso  ? H
   C898       1.0     0.313896     0.511939     0.296631    Uiso  ? C
   C899       1.0     0.300642     0.531340     0.298504    Uiso  ? C
   C900       1.0     0.305962     0.493584     0.283850    Uiso  ? C
   C901       1.0     0.280507     0.532343     0.287328    Uiso  ? C
   H610       1.0     0.305281     0.545317     0.309014    Uiso  ? H
   C902       1.0     0.285108     0.494411     0.274909    Uiso  ? C
   H611       1.0     0.316026     0.479032     0.281724    Uiso  ? H
   C903       1.0     0.272206     0.513076     0.276298    Uiso  ? C
   H612       1.0     0.270804     0.547228     0.289016    Uiso  ? H
   H613       1.0     0.278682     0.479264     0.266471    Uiso  ? H
   C904       1.0     0.249492     0.513134     0.266246    Uiso  ? C
   H614       1.0     0.244139     0.530116     0.263602    Uiso  ? H
   H615       1.0     0.249631     0.504506     0.249703    Uiso  ? H
   N38        1.0     0.234264     0.502038     0.280958    Uiso  ? N
   C905       1.0     0.222436     0.511036     0.297129    Uiso  ? C
   N39        1.0     0.209915     0.496287     0.308177    Uiso  ? N
   C906       1.0     0.213313     0.477449     0.296844    Uiso  ? C
   H616       1.0     0.204475     0.461896     0.299972    Uiso  ? H
   C907       1.0     0.228192     0.480679     0.280236    Uiso  ? C
   H617       1.0     0.232522     0.468726     0.266864    Uiso  ? H
   N40        1.0     0.377545     0.521381     0.268403    Uiso  ? N
   C908       1.0     0.373030     0.542076     0.276696    Uiso  ? C
   H618       1.0     0.379921     0.557060     0.270710    Uiso  ? H
   H619       1.0     0.365131     0.490592     0.278455    Uiso  ? H
   H620       1.0     0.225373     0.527458     0.303026    Uiso  ? H
   C909       1.0     0.323007     0.429354     0.750254    Uiso  ? C
   H621       1.0     0.306433     0.422608     0.748201    Uiso  ? H
   C910       1.0     0.356937     0.437377     0.744291    Uiso  ? C
   N41        1.0     0.338556     0.429876     0.734447    Uiso  ? N
   C911       1.0     0.336177     0.424569     0.711017    Uiso  ? C
   H622       1.0     0.352986     0.419902     0.705191    Uiso  ? H
   H623       1.0     0.324221     0.410855     0.709348    Uiso  ? H
   C912       1.0     0.329025     0.445356     0.698988    Uiso  ? C
   C913       1.0     0.306771     0.448869     0.694586    Uiso  ? C
   C914       1.0     0.344703     0.459947     0.690028    Uiso  ? C
   C915       1.0     0.299744     0.467860     0.683534    Uiso  ? C
   H624       1.0     0.294315     0.436775     0.699211    Uiso  ? H
   C916       1.0     0.338282     0.479416     0.679645    Uiso  ? C
   H625       1.0     0.362565     0.456140     0.691692    Uiso  ? H
   C917       1.0     0.315096     0.483261     0.675849    Uiso  ? C
   H626       1.0     0.281912     0.469612     0.680781    Uiso  ? H
   H627       1.0     0.351139     0.489979     0.673381    Uiso  ? H
   C918       1.0     0.306957     0.503628     0.664419    Uiso  ? C
   H628       1.0     0.293941     0.511450     0.674092    Uiso  ? H
   H629       1.0     0.321052     0.515161     0.661641    Uiso  ? H
   N42        1.0     0.298866     0.497218     0.642058    Uiso  ? N
   C919       1.0     0.278009     0.500292     0.634594    Uiso  ? C
   N43        1.0     0.276379     0.496283     0.612526    Uiso  ? N
   C920       1.0     0.296917     0.489827     0.606183    Uiso  ? C
   H630       1.0     0.300923     0.483349     0.589779    Uiso  ? H
   C921       1.0     0.310251     0.489550     0.624350    Uiso  ? C
   H631       1.0     0.327668     0.485902     0.624360    Uiso  ? H
   N44        1.0     0.353655     0.442957     0.765198    Uiso  ? N
   C922       1.0     0.331783     0.438618     0.768873    Uiso  ? C
   H632       1.0     0.322782     0.440953     0.784399    Uiso  ? H
   H633       1.0     0.372980     0.439564     0.736081    Uiso  ? H
   H634       1.0     0.264975     0.505825     0.644875    Uiso  ? H
   C923       1.0     0.645335     0.462359     0.708339    Uiso  ? C
   H635       1.0     0.650374     0.449609     0.697140    Uiso  ? H
   C924       1.0     0.640339     0.493455     0.724485    Uiso  ? C
   N45        1.0     0.651156     0.483819     0.707837    Uiso  ? N
   C925       1.0     0.666570     0.493981     0.691846    Uiso  ? C
   H636       1.0     0.662987     0.487196     0.675195    Uiso  ? H
   H637       1.0     0.664384     0.512164     0.691132    Uiso  ? H
   C926       1.0     0.689862     0.488957     0.698889    Uiso  ? C
   C927       1.0     0.702864     0.473967     0.686751    Uiso  ? C
   C928       1.0     0.699936     0.499240     0.717515    Uiso  ? C
   C929       1.0     0.724626     0.468804     0.692605    Uiso  ? C
   H638       1.0     0.695103     0.465461     0.673143    Uiso  ? H
   C930       1.0     0.721868     0.494216     0.723741    Uiso  ? C
   H639       1.0     0.690079     0.510249     0.727522    Uiso  ? H
   C931       1.0     0.734205     0.478713     0.711032    Uiso  ? C
   H640       1.0     0.733590     0.456679     0.682393    Uiso  ? H
   H641       1.0     0.728921     0.501927     0.738144    Uiso  ? H
   C932       1.0     0.757517     0.473679     0.717151    Uiso  ? C
   H642       1.0     0.760371     0.475486     0.735215    Uiso  ? H
   H643       1.0     0.761840     0.456303     0.712939    Uiso  ? H
   N46        1.0     0.772823     0.488178     0.705542    Uiso  ? N
   C933       1.0     0.780843     0.484657     0.685167    Uiso  ? C
   N47        1.0     0.792854     0.502357     0.677717    Uiso  ? N
   C934       1.0     0.791388     0.517618     0.694191    Uiso  ? C
   H644       1.0     0.798771     0.533902     0.693061    Uiso  ? H
   C935       1.0     0.778800     0.508966     0.711120    Uiso  ? C
   H645       1.0     0.773233     0.517643     0.726102    Uiso  ? H
   N48        1.0     0.628260     0.478760     0.735803    Uiso  ? N
   C936       1.0     0.631302     0.459416     0.726130    Uiso  ? C
   H646       1.0     0.622229     0.444506     0.730294    Uiso  ? H
   H647       1.0     0.640643     0.511046     0.728354    Uiso  ? H
   H648       1.0     0.776993     0.470078     0.675395    Uiso  ? H
   C937       1.0     0.733266     0.718876     0.171581    Uiso  ? C
   H649       1.0     0.727808     0.705818     0.183442    Uiso  ? H
   C938       1.0     0.732837     0.740049     0.143295    Uiso  ? C
   N49        1.0     0.720807     0.725823     0.154703    Uiso  ? N
   C939       1.0     0.697886     0.718314     0.149978    Uiso  ? C
   H650       1.0     0.693453     0.704534     0.162092    Uiso  ? H
   H651       1.0     0.687120     0.732447     0.152096    Uiso  ? H
   C940       1.0     0.696990     0.709229     0.126543    Uiso  ? C
   C941       1.0     0.703318     0.687236     0.122543    Uiso  ? C
   C942       1.0     0.689176     0.721756     0.109335    Uiso  ? C
   C943       1.0     0.701601     0.677882     0.101689    Uiso  ? C
   H652       1.0     0.708566     0.676630     0.135927    Uiso  ? H
   C944       1.0     0.688712     0.712193     0.889196    Uiso  ? C
   H653       1.0     0.682791     0.737611     0.112425    Uiso  ? H
   C945       1.0     0.694888     0.690038     0.884886    Uiso  ? C
   H654       1.0     0.705810     0.659459     0.900000    Uiso  ? H
   H655       1.0     0.682517     0.722396     0.876405    Uiso  ? H
   C946       1.0     0.692994     0.681312     0.862517    Uiso  ? C
   H656       1.0     0.700738     0.692963     0.850698    Uiso  ? H
   H657       1.0     0.702434     0.665009     0.861517    Uiso  ? H
   N50        1.0     0.670010     0.676205     0.857359    Uiso  ? N
   C947       1.0     0.659014     0.657955     0.864035    Uiso  ? C
   N51        1.0     0.637753     0.658707     0.858048    Uiso  ? N
   C948       1.0     0.635500     0.677705     0.847278    Uiso  ? C
   H658       1.0     0.620300     0.684693     0.840737    Uiso  ? H
   C949       1.0     0.655881     0.688310     0.845718    Uiso  ? C
   H659       1.0     0.659930     0.703663     0.837985    Uiso  ? H
   N52        1.0     0.753237     0.743055     0.152403    Uiso  ? N
   C950       1.0     0.753333     0.729939     0.170405    Uiso  ? C
   H660       1.0     0.766445     0.728028     0.182146    Uiso  ? H
   H661       1.0     0.727284     0.748563     0.128481    Uiso  ? H
   H662       1.0     0.665827     0.645521     0.874517    Uiso  ? H
   C951       1.0     0.718105     0.383661     0.100332    Uiso  ? C
   H663       1.0     0.733674     0.381855     0.892965    Uiso  ? H
   C952       1.0     0.691569     0.375955     0.122644    Uiso  ? C
   N53        1.0     0.711932     0.368838     0.115852    Uiso  ? N
   C953       1.0     0.723677     0.348765     0.122295    Uiso  ? C
   H664       1.0     0.741882     0.352246     0.122580    Uiso  ? H
   H665       1.0     0.718837     0.343768     0.139736    Uiso  ? H
   C954       1.0     0.719056     0.329502     0.107098    Uiso  ? C
   C955       1.0     0.698202     0.318954     0.106489    Uiso  ? C
   C956       1.0     0.735706     0.322189     0.892979    Uiso  ? C
   C957       1.0     0.694826     0.301934     0.891790    Uiso  ? C
   H666       1.0     0.685032     0.323082     0.117183    Uiso  ? H
   C958       1.0     0.731872     0.305850     0.877339    Uiso  ? C
   H667       1.0     0.752501     0.330194     0.893969    Uiso  ? H
   C959       1.0     0.710543     0.296349     0.876132    Uiso  ? C
   H668       1.0     0.678270     0.295964     0.890466    Uiso  ? H
   H669       1.0     0.744303     0.301912     0.864969    Uiso  ? H
   C960       1.0     0.705383     0.278819     0.859161    Uiso  ? C
   H670       1.0     0.687793     0.278859     0.854653    Uiso  ? H
   H671       1.0     0.715470     0.282432     0.844244    Uiso  ? H
   N54        1.0     0.711368     0.257077     0.867593    Uiso  ? N
   C961       1.0     0.731234     0.246818     0.865981    Uiso  ? C
   N55        1.0     0.731354     0.227501     0.876176    Uiso  ? N
   C962       1.0     0.710381     0.224457     0.883705    Uiso  ? C
   H672       1.0     0.704876     0.209566     0.891849    Uiso  ? H
   C963       1.0     0.698011     0.242849     0.878114    Uiso  ? C
   H673       1.0     0.680335     0.244423     0.881307    Uiso  ? H
   N56        1.0     0.685460     0.394257     0.112011    Uiso  ? N
   C964       1.0     0.701510     0.398489     0.899345    Uiso  ? C
   H674       1.0     0.701043     0.412294     0.887792    Uiso  ? H
   H675       1.0     0.680915     0.366998     0.134387    Uiso  ? H
   H676       1.0     0.745581     0.253686     0.858093    Uiso  ? H
   C965       1.0     0.285511     0.730078     0.149773    Uiso  ? C
   H677       1.0     0.301593     0.723955     0.148890    Uiso  ? H
   C966       1.0     0.251026     0.734635     0.159031    Uiso  ? C
   N57        1.0     0.269099     0.721911     0.162599    Uiso  ? N
   C967       1.0     0.269863     0.701841     0.175706    Uiso  ? C
   H678       1.0     0.285435     0.701751     0.185756    Uiso  ? H
   H679       1.0     0.255968     0.701569     0.187978    Uiso  ? H
   C968       1.0     0.268031     0.682240     0.160775    Uiso  ? C
   C969       1.0     0.286356     0.667757     0.158769    Uiso  ? C
   C970       1.0     0.248810     0.677440     0.149018    Uiso  ? C
   C971       1.0     0.285381     0.649009     0.145739    Uiso  ? C
   H680       1.0     0.301606     0.671811     0.167124    Uiso  ? H
   C972       1.0     0.248158     0.659044     0.134478    Uiso  ? C
   H681       1.0     0.233023     0.685445     0.152099    Uiso  ? H
   C973       1.0     0.266229     0.644768     0.133633    Uiso  ? C
   H682       1.0     0.299268     0.637223     0.145139    Uiso  ? H
   H683       1.0     0.232755     0.655407     0.125624    Uiso  ? H
   C974       1.0     0.264718     0.624040     0.119079    Uiso  ? C
   H684       1.0     0.262217     0.609121     0.128904    Uiso  ? H
   H685       1.0     0.249875     0.625802     0.108144    Uiso  ? H
   N58        1.0     0.284954     0.620540     0.105909    Uiso  ? N
   C975       1.0     0.302203     0.607029     0.110615    Uiso  ? C
   N59        1.0     0.318707     0.607524     0.896004    Uiso  ? N
   C976       1.0     0.310762     0.622443     0.881209    Uiso  ? C
   H686       1.0     0.318628     0.627441     0.865906    Uiso  ? H
   C977       1.0     0.290369     0.629871     0.887834    Uiso  ? C
   H687       1.0     0.280175     0.641176     0.878551    Uiso  ? H
   N60        1.0     0.255956     0.750784     0.144845    Uiso  ? N
   C978       1.0     0.277480     0.748102     0.138756    Uiso  ? C
   H688       1.0     0.286743     0.757885     0.127090    Uiso  ? H
   H689       1.0     0.234724     0.731720     0.164638    Uiso  ? H
   H690       1.0     0.303747     0.598325     0.126260    Uiso  ? H
   C979       1.0     0.334413     0.329690     0.156771    Uiso  ? C
   H691       1.0     0.317566     0.326355     0.163235    Uiso  ? H
   C980       1.0     0.365205     0.325147     0.138737    Uiso  ? C
   N61        1.0     0.345325     0.315636     0.143697    Uiso  ? N
   C981       1.0     0.336764     0.294041     0.135379    Uiso  ? C
   H692       1.0     0.350807     0.284373     0.132046    Uiso  ? H
   H693       1.0     0.326747     0.286940     0.149241    Uiso  ? H
   C982       1.0     0.322437     0.297109     0.115077    Uiso  ? C
   C983       1.0     0.298997     0.298187     0.117023    Uiso  ? C
   C984       1.0     0.332059     0.296478     0.895209    Uiso  ? C
   C985       1.0     0.285943     0.299647     0.899454    Uiso  ? C
   H694       1.0     0.292017     0.297422     0.132932    Uiso  ? H
   C986       1.0     0.318552     0.299753     0.876256    Uiso  ? C
   H695       1.0     0.349908     0.294896     0.893104    Uiso  ? H
   C987       1.0     0.295299     0.301575     0.878352    Uiso  ? C
   H696       1.0     0.267962     0.303402     0.100000    Uiso  ? H
   H697       1.0     0.325671     0.300310     0.860037    Uiso  ? H
   C988       1.0     0.280553     0.301866     0.857850    Uiso  ? C
   H698       1.0     0.266441     0.313106     0.861507    Uiso  ? H
   H699       1.0     0.289955     0.308500     0.843746    Uiso  ? H
   N62        1.0     0.272899     0.279492     0.853269    Uiso  ? N
   C989       1.0     0.255460     0.269110     0.863365    Uiso  ? C
   N63        1.0     0.253651     0.248022     0.856480    Uiso  ? N
   C990       1.0     0.270139     0.245092     0.841346    Uiso  ? C
   H700       1.0     0.275435     0.229699     0.835210    Uiso  ? H
   C991       1.0     0.282342     0.263803     0.840182    Uiso  ? C
   H701       1.0     0.296086     0.266605     0.828611    Uiso  ? H
   N64        1.0     0.367407     0.344690     0.148914    Uiso  ? N
   C992       1.0     0.347963     0.348068     0.159695    Uiso  ? C
   H702       1.0     0.344232     0.361406     0.170795    Uiso  ? H
   H703       1.0     0.377917     0.317473     0.128256    Uiso  ? H
   H704       1.0     0.243985     0.276701     0.874092    Uiso  ? H
   C993       1.0     0.719418     0.873813     0.608917    Uiso  ? C
   H705       1.0     0.735107     0.866062     0.607804    Uiso  ? H
   C994       1.0     0.691253     0.891645     0.620450    Uiso  ? C
   N65        1.0     0.712565     0.887540     0.625336    Uiso  ? N
   C995       1.0     0.724836     0.894945     0.645191    Uiso  ? C
   H706       1.0     0.742155     0.105541     0.638897    Uiso  ? H
   H707       1.0     0.716923     0.111857     0.654249    Uiso  ? H
   C996       1.0     0.728286     0.876058     0.660834    Uiso  ? C
   C997       1.0     0.710584     0.868306     0.673553    Uiso  ? C
   C998       1.0     0.748489     0.864040     0.661221    Uiso  ? C
   C999       1.0     0.713114     0.850388     0.688257    Uiso  ? C
   H708       1.0     0.695072     0.876098     0.671966    Uiso  ? H
   C1000      1.0     0.750674     0.845077     0.675008    Uiso  ? C
   H709       1.0     0.760862     0.868832     0.649511    Uiso  ? H
   C1001      1.0     0.733322     0.838407     0.688677    Uiso  ? C
   H710       1.0     0.700151     0.844992     0.699220    Uiso  ? H
   H711       1.0     0.766706     0.836588     0.674211    Uiso  ? H
   C1002      1.0     0.735152     0.819586     0.704191    Uiso  ? C
   H712       1.0     0.720158     0.809506     0.703283    Uiso  ? H
   H713       1.0     0.750312     0.809175     0.700956    Uiso  ? H
   N66        1.0     0.736299     0.828072     0.726652    Uiso  ? N
   C1003      1.0     0.754690     0.835865     0.737033    Uiso  ? C
   N67        1.0     0.750950     0.840652     0.758511    Uiso  ? N
   C1004      1.0     0.729322     0.836148     0.762178    Uiso  ? C
   H714       1.0     0.722232     0.837362     0.778606    Uiso  ? H
   C1005      1.0     0.720382     0.827920     0.742484    Uiso  ? C
   H715       1.0     0.703442     0.822317     0.740616    Uiso  ? H
   N68        1.0     0.684334     0.881519     0.601496    Uiso  ? N
   C1006      1.0     0.702475     0.870270     0.594153    Uiso  ? C
   H716       1.0     0.702424     0.859262     0.580342    Uiso  ? H
   H717       1.0     0.681550     0.104730     0.630634    Uiso  ? H
   H718       1.0     0.771023     0.837737     0.728914    Uiso  ? H
   C1007      1.0     0.275974     0.849197     0.733737    Uiso  ? C
   H719       1.0     0.289094     0.838870     0.727962    Uiso  ? H
   C1008      1.0     0.252352     0.875497     0.736322    Uiso  ? C
   N69        1.0     0.268428     0.867613     0.723524    Uiso  ? N
   C1009      1.0     0.275521     0.876346     0.701850    Uiso  ? C
   H720       1.0     0.280672     0.862585     0.691468    Uiso  ? H
   H721       1.0     0.261914     0.883965     0.692774    Uiso  ? H
   C1010      1.0     0.293796     0.893389     0.705524    Uiso  ? C
   C1011      1.0     0.315285     0.886551     0.709634    Uiso  ? C
   C1012      1.0     0.289613     0.119463     0.705195    Uiso  ? C
   C1013      1.0     0.333152     0.105197     0.712737    Uiso  ? C
   H722       1.0     0.320065     0.868590     0.709516    Uiso  ? H
   C1014      1.0     0.306347     0.135257     0.709167    Uiso  ? C
   H723       1.0     0.272957     0.125463     0.701853    Uiso  ? H
   C1015      1.0     0.328526     0.128062     0.712071    Uiso  ? C
   H724       1.0     0.348706     0.895004     0.714960    Uiso  ? H
   H725       1.0     0.301641     0.152544     0.709816    Uiso  ? H
   C1016      1.0     0.347287     0.145135     0.713482    Uiso  ? C
   H726       1.0     0.341403     0.159661     0.722384    Uiso  ? H
   H727       1.0     0.361679     0.138154     0.722122    Uiso  ? H
   N70        1.0     0.353687     0.151877     0.690912    Uiso  ? N
   C1017      1.0     0.371208     0.144082     0.679723    Uiso  ? C
   N71        1.0     0.372412     0.152016     0.658983    Uiso  ? N
   C1018      1.0     0.354677     0.165598     0.657604    Uiso  ? C
   H728       1.0     0.350046     0.173170     0.642037    Uiso  ? H
   C1019      1.0     0.342922     0.165872     0.677332    Uiso  ? C
   H729       1.0     0.328809     0.175471     0.682279    Uiso  ? H
   N72        1.0     0.250204     0.863581     0.755070    Uiso  ? N
   C1020      1.0     0.265204     0.847511     0.753528    Uiso  ? C
   H730       1.0     0.267549     0.834217     0.765266    Uiso  ? H
   H731       1.0     0.242412     0.890195     0.733355    Uiso  ? H
   H732       1.0     0.382993     0.132111     0.686257    Uiso  ? H
   C1021      1.0     0.289962     0.153808     0.253780    Uiso  ? C
   H733       1.0     0.303400     0.164683     0.257146    Uiso  ? H
   C1022      1.0     0.267512     0.126586     0.254562    Uiso  ? C
   N73        1.0     0.286834     0.134011     0.262810    Uiso  ? N
   C1023      1.0     0.300019     0.122821     0.279518    Uiso  ? C
   H734       1.0     0.297321     0.105197     0.277475    Uiso  ? H
   H735       1.0     0.317209     0.126961     0.277470    Uiso  ? H
   C1024      1.0     0.292663     0.130059     0.302336    Uiso  ? C
   C1025      1.0     0.302872     0.148273     0.312451    Uiso  ? C
   C1026      1.0     0.276303     0.118135     0.314139    Uiso  ? C
   C1027      1.0     0.296112     0.155833     0.333294    Uiso  ? C
   H736       1.0     0.314882     0.157045     0.302723    Uiso  ? H
   C1028      1.0     0.269405     0.125651     0.334878    Uiso  ? C
   H737       1.0     0.268666     0.103559     0.306412    Uiso  ? H
   C1029      1.0     0.278940     0.145432     0.343997    Uiso  ? C
   H738       1.0     0.305354     0.169828     0.340542    Uiso  ? H
   H739       1.0     0.256151     0.117887     0.343962    Uiso  ? H
   C1030      1.0     0.270789     0.153150     0.366263    Uiso  ? C
   H740       1.0     0.274626     0.170760     0.369631    Uiso  ? H
   H741       1.0     0.252281     0.150063     0.367009    Uiso  ? H
   N74        1.0     0.281858     0.140078     0.383571    Uiso  ? N
   C1031      1.0     0.303236     0.142664     0.390029    Uiso  ? C
   N75        1.0     0.309431     0.126140     0.403546    Uiso  ? N
   C1032      1.0     0.291394     0.113494     0.406993    Uiso  ? C
   H742       1.0     0.289937     0.895032     0.416549    Uiso  ? H
   C1033      1.0     0.274087     0.122076     0.394188    Uiso  ? C
   H743       1.0     0.257231     0.116641     0.393891    Uiso  ? H
   N76        1.0     0.258214     0.141366     0.240765    Uiso  ? N
   C1034      1.0     0.272876     0.158397     0.239916    Uiso  ? C
   H744       1.0     0.270457     0.172996     0.229848    Uiso  ? H
   H745       1.0     0.261020     0.109726     0.257688    Uiso  ? H
   H746       1.0     0.314678     0.155157     0.383698    Uiso  ? H
   C1035      1.0     0.623659     0.859148     0.284752    Uiso  ? C
   H747       1.0     0.624456     0.857292     0.266137    Uiso  ? H
   C1036      1.0     0.634645     0.859816     0.318629    Uiso  ? C
   N77        1.0     0.641926     0.857651     0.297613    Uiso  ? N
   C1037      1.0     0.664206     0.854746     0.290155    Uiso  ? C
   H748       1.0     0.672009     0.839729     0.298089    Uiso  ? H
   H749       1.0     0.664154     0.852039     0.271983    Uiso  ? H
   C1038      1.0     0.678257     0.874990     0.294464    Uiso  ? C
   C1039      1.0     0.670628     0.895933     0.289553    Uiso  ? C
   C1040      1.0     0.699610     0.873014     0.303950    Uiso  ? C
   C1041      1.0     0.684384     0.118100     0.292954    Uiso  ? C
   H750       1.0     0.654651     0.898111     0.281649    Uiso  ? H
   C1042      1.0     0.712671     0.891448     0.307463    Uiso  ? C
   H751       1.0     0.705327     0.856447     0.309161    Uiso  ? H
   C1043      1.0     0.705309     0.115862     0.301956    Uiso  ? C
   H752       1.0     0.678215     0.134269     0.287637    Uiso  ? H
   H753       1.0     0.728660     0.889208     0.314933    Uiso  ? H
   C1044      1.0     0.720193     0.135488     0.305173    Uiso  ? C
   H754       1.0     0.709531     0.149681     0.310725    Uiso  ? H
   H755       1.0     0.733598     0.131844     0.317325    Uiso  ? H
   N78        1.0     0.731025     0.141022     0.284351    Uiso  ? N
   C1045      1.0     0.746888     0.128821     0.275218    Uiso  ? C
   N79        1.0     0.753070     0.136494     0.255397    Uiso  ? N
   C1046      1.0     0.739285     0.154347     0.251724    Uiso  ? C
   H756       1.0     0.740021     0.163929     0.237179    Uiso  ? H
   C1047      1.0     0.725829     0.157090     0.269653    Uiso  ? C
   H757       1.0     0.712061     0.167946     0.270911    Uiso  ? H
   N80        1.0     0.612452     0.862017     0.319598    Uiso  ? N
   C1048      1.0     0.605480     0.861132     0.298648    Uiso  ? C
   H758       1.0     0.588559     0.860960     0.293637    Uiso  ? H
   H759       1.0     0.645125     0.860335     0.332798    Uiso  ? H
   H760       1.0     0.753158     0.114217     0.282921    Uiso  ? H
   C1049      1.0     0.140995     0.319251     0.663286    Uiso  ? C
   H761       1.0     0.141903     0.312333     0.679830    Uiso  ? H
   C1050      1.0     0.147755     0.324172     0.628989    Uiso  ? C
   N81        1.0     0.148934     0.309039     0.645011    Uiso  ? N
   C1051      1.0     0.160475     0.287730     0.643273    Uiso  ? C
   H762       1.0     0.165017     0.284391     0.625395    Uiso  ? H
   H763       1.0     0.176195     0.288737     0.652786    Uiso  ? H
   C1052      1.0     0.147243     0.268014     0.651351    Uiso  ? C
   C1053      1.0     0.124852     0.265423     0.644444    Uiso  ? C
   C1054      1.0     0.156630     0.252306     0.665675    Uiso  ? C
   C1055      1.0     0.112940     0.247006     0.651566    Uiso  ? C
   H764       1.0     0.116816     0.278171     0.634895    Uiso  ? H
   C1056      1.0     0.144645     0.234072     0.672523    Uiso  ? C
   H765       1.0     0.173323     0.255178     0.671860    Uiso  ? H
   C1057      1.0     0.122329     0.231831     0.665907    Uiso  ? C
   H766       1.0     0.893141     0.244275     0.646248    Uiso  ? H
   H767       1.0     0.152032     0.222562     0.684038    Uiso  ? H
   C1058      1.0     0.109272     0.212133     0.673761    Uiso  ? C
   H768       1.0     0.891048     0.211081     0.663648    Uiso  ? H
   H769       1.0     0.119171     0.196195     0.671604    Uiso  ? H
   N82        1.0     0.103660     0.215189     0.697228    Uiso  ? N
   C1059      1.0     0.109566     0.202739     0.714784    Uiso  ? C
   N83        1.0     0.895432     0.208585     0.733135    Uiso  ? N
   C1060      1.0     0.881975     0.225510     0.726925    Uiso  ? C
   H770       1.0     0.871187     0.235119     0.737858    Uiso  ? H
   C1061      1.0     0.884861     0.229035     0.704795    Uiso  ? C
   H771       1.0     0.876509     0.241482     0.694910    Uiso  ? H
   N84        1.0     0.138911     0.343015     0.636445    Uiso  ? N
   C1062      1.0     0.134309     0.340011     0.658055    Uiso  ? C
   H772       1.0     0.128063     0.352530     0.668226    Uiso  ? H
   H773       1.0     0.152174     0.321657     0.611977    Uiso  ? H
   H774       1.0     0.122400     0.190373     0.713985    Uiso  ? H
   C1063      1.0     0.887953     0.675074     0.785989    Uiso  ? C
   H775       1.0     0.878670     0.661172     0.780959    Uiso  ? H
   C1064      1.0     0.118525     0.697641     0.788540    Uiso  ? C
   N85        1.0     0.112388     0.677311     0.781043    Uiso  ? N
   C1065      1.0     0.126173     0.662412     0.767539    Uiso  ? C
   H776       1.0     0.143101     0.662210     0.775405    Uiso  ? H
   H777       1.0     0.118610     0.646113     0.767812    Uiso  ? H
   C1066      1.0     0.127954     0.671440     0.744074    Uiso  ? C
   C1067      1.0     0.110975     0.666489     0.729106    Uiso  ? C
   C1068      1.0     0.144803     0.685644     0.737433    Uiso  ? C
   C1069      1.0     0.110364     0.675048     0.707891    Uiso  ? C
   H778       1.0     0.893776     0.655963     0.734147    Uiso  ? H
   C1070      1.0     0.145121     0.693012     0.715850    Uiso  ? C
   H779       1.0     0.157968     0.691407     0.748541    Uiso  ? H
   C1071      1.0     0.127207     0.689304     0.701286    Uiso  ? C
   H780       1.0     0.893597     0.670941     0.697064    Uiso  ? H
   H781       1.0     0.158537     0.703653     0.710731    Uiso  ? H
   C1072      1.0     0.126704     0.700077     0.678344    Uiso  ? C
   H782       1.0     0.108903     0.704684     0.674098    Uiso  ? H
   H783       1.0     0.136891     0.715811     0.679078    Uiso  ? H
   N86        1.0     0.136069     0.684774     0.661509    Uiso  ? N
   C1073      1.0     0.124812     0.669490     0.649187    Uiso  ? C
   N87        1.0     0.138850     0.657363     0.636312    Uiso  ? N
   C1074      1.0     0.158908     0.663563     0.642696    Uiso  ? C
   H784       1.0     0.174736     0.657740     0.636746    Uiso  ? H
   C1075      1.0     0.157600     0.681067     0.657480    Uiso  ? C
   H785       1.0     0.171213     0.690569     0.665779    Uiso  ? H
   N88        1.0     0.101888     0.708705     0.798301    Uiso  ? N
   C1076      1.0     0.881690     0.694768     0.796188    Uiso  ? C
   H786       1.0     0.865255     0.697747     0.801814    Uiso  ? H
   H787       1.0     0.134245     0.704881     0.785771    Uiso  ? H
   H788       1.0     0.106839     0.668570     0.647289    Uiso  ? H
   C1077      1.0     0.830710     0.676524     0.331705    Uiso  ? C
   H789       1.0     0.816620     0.687016     0.328002    Uiso  ? H
   C1078      1.0     0.863114     0.661299     0.330159    Uiso  ? C
   N89        1.0     0.849951     0.675916     0.320241    Uiso  ? N
   C1079      1.0     0.855865     0.690359     0.301883    Uiso  ? C
   H790       1.0     0.865298     0.680547     0.288967    Uiso  ? H
   H791       1.0     0.840665     0.697203     0.294078    Uiso  ? H
   C1080      1.0     0.869565     0.709067     0.311368    Uiso  ? C
   C1081      1.0     0.858733     0.726960     0.321769    Uiso  ? C
   C1082      1.0     0.892536     0.709661     0.308890    Uiso  ? C
   C1083      1.0     0.870693     0.744778     0.330402    Uiso  ? C
   H792       1.0     0.840486     0.727026     0.322450    Uiso  ? H
   C1084      1.0     0.107186     0.726514     0.319236    Uiso  ? C
   H793       1.0     0.104086     0.695221     0.302188    Uiso  ? H
   C1085      1.0     0.893711     0.744500     0.328660    Uiso  ? C
   H794       1.0     0.862073     0.758564     0.337766    Uiso  ? H
   H795       1.0     0.125202     0.724985     0.320488    Uiso  ? H
   C1086      1.0     0.110490     0.763752     0.337033    Uiso  ? C
   H796       1.0     0.897001     0.775864     0.346639    Uiso  ? H
   H797       1.0     0.124415     0.757079     0.347325    Uiso  ? H
   N90        1.0     0.119693     0.775121     0.318411    Uiso  ? N
   C1087      1.0     0.107865     0.784266     0.301586    Uiso  ? C
   N91        1.0     0.121334     0.792868     0.285830    Uiso  ? N
   C1088      1.0     0.142071     0.788625     0.293574    Uiso  ? C
   H798       1.0     0.157946     0.792385     0.285052    Uiso  ? H
   C1089      1.0     0.141119     0.777760     0.313460    Uiso  ? C
   H799       1.0     0.155137     0.771752     0.322480    Uiso  ? H
   N92        1.0     0.852905     0.651919     0.347674    Uiso  ? N
   C1090      1.0     0.832820     0.661678     0.349256    Uiso  ? C
   H800       1.0     0.820262     0.657218     0.361191    Uiso  ? H
   H801       1.0     0.879958     0.657135     0.324869    Uiso  ? H
   H802       1.0     0.887270     0.783870     0.299862    Uiso  ? H
   C1091      1.0     0.858449     0.320779     0.324184    Uiso  ? C
   H803       1.0     0.864260     0.307869     0.313494    Uiso  ? H
   C1092      1.0     0.838841     0.346537     0.339847    Uiso  ? C
   N93        1.0     0.837621     0.328835     0.325852    Uiso  ? N
   C1093      1.0     0.819085     0.321543     0.312015    Uiso  ? C
   H804       1.0     0.813133     0.305265     0.316697    Uiso  ? H
   H805       1.0     0.805549     0.332709     0.315308    Uiso  ? H
   C1094      1.0     0.825076     0.322312     0.287960    Uiso  ? C
   C1095      1.0     0.823608     0.302849     0.275828    Uiso  ? C
   C1096      1.0     0.832107     0.341749     0.277914    Uiso  ? C
   C1097      1.0     0.830132     0.302997     0.253385    Uiso  ? C
   H806       1.0     0.818058     0.287449     0.283603    Uiso  ? H
   C1098      1.0     0.838100     0.341747     0.255971    Uiso  ? C
   H807       1.0     0.831654     0.357645     0.286682    Uiso  ? H
   C1099      1.0     0.836941     0.322950     0.243274    Uiso  ? C
   H808       1.0     0.829308     0.287949     0.243729    Uiso  ? H
   H809       1.0     0.843085     0.357014     0.248020    Uiso  ? H
   C1100      1.0     0.841886     0.323520     0.218817    Uiso  ? C
   H810       1.0     0.827888     0.315870     0.210605    Uiso  ? H
   H811       1.0     0.843712     0.341155     0.213253    Uiso  ? H
   N94        1.0     0.861934     0.310727     0.213916    Uiso  ? N
   C1101      1.0     0.862464     0.291120     0.204526    Uiso  ? C
   N95        1.0     0.882975     0.283771     0.201047    Uiso  ? N
   C1102      1.0     0.896267     0.300573     0.207652    Uiso  ? C
   H812       1.0     0.117301     0.300302     0.207143    Uiso  ? H
   C1103      1.0     0.883274     0.317906     0.215632    Uiso  ? C
   H813       1.0     0.888409     0.333294     0.223023    Uiso  ? H
   N96        1.0     0.859269     0.348522     0.348603    Uiso  ? N
   C1104      1.0     0.871521     0.333241     0.337807    Uiso  ? C
   H814       1.0     0.888816     0.332028     0.339077    Uiso  ? H
   H815       1.0     0.824673     0.356952     0.343916    Uiso  ? H
   H816       1.0     0.847850     0.282083     0.199029    Uiso  ? H
