
#======================================================================
# CRYSTAL DATA
#----------------------------------------------------------------------
data_VESTA_phase_1

_chemical_name_common                  ' Atoms. Timestep: 0'
_cell_length_a                         50.628670
_cell_length_b                         50.628670
_cell_length_c                         50.628670
_cell_angle_alpha                      90.000000
_cell_angle_beta                       90.000000
_cell_angle_gamma                      90.000000
_cell_volume                           1.000000
_space_group_name_H-M_alt              'P 1'
_space_group_IT_number                 1

loop_
_space_group_symop_operation_xyz
   'x, y, z'

loop_
   _atom_site_label
   _atom_site_occupancy
   _atom_site_fract_x
   _atom_site_fract_y
   _atom_site_fract_z
   _atom_site_adp_type
   _atom_site_U_iso_or_equiv
   _atom_site_type_symbol
   C1         1.0     0.861667     0.798706     0.254788    Uiso  ? C
   C2         1.0     0.842555     0.815935     0.269095    Uiso  ? C
   C3         1.0     0.834704     0.809087     0.294957    Uiso  ? C
   H1         1.0     0.844461     0.792666     0.305817    Uiso  ? H
   C4         1.0     0.814379     0.822771     0.307413    Uiso  ? C
   H2         1.0     0.807754     0.817104     0.327127    Uiso  ? H
   C5         1.0     0.802463     0.844863     0.294910    Uiso  ? C
   H3         1.0     0.786792     0.855521     0.305576    Uiso  ? H
   C6         1.0     0.809575     0.851759     0.269578    Uiso  ? C
   C7         1.0     0.828993     0.836949     0.256136    Uiso  ? C
   H4         1.0     0.834484     0.842853     0.236152    Uiso  ? H
   C8         1.0     0.793776     0.872551     0.255374    Uiso  ? C
   C9         1.0     0.862034     0.739447     0.202006    Uiso  ? C
   C10        1.0     0.842792     0.725591     0.184855    Uiso  ? C
   C11        1.0     0.834143     0.699975     0.191125    Uiso  ? C
   H5         1.0     0.840398     0.690390     0.208744    Uiso  ? H
   C12        1.0     0.815669     0.686435     0.175305    Uiso  ? C
   H6         1.0     0.810745     0.666458     0.180612    Uiso  ? H
   C13        1.0     0.805757     0.698983     0.152754    Uiso  ? C
   H7         1.0     0.791434     0.689447     0.139770    Uiso  ? H
   C14        1.0     0.811596     0.725773     0.148324    Uiso  ? C
   C15        1.0     0.832102     0.737851     0.162894    Uiso  ? C
   H8         1.0     0.838352     0.759185     0.158429    Uiso  ? H
   C16        1.0     0.797985     0.740290     0.127144    Uiso  ? C
   C17        1.0     0.145157     0.750152     0.214619    Uiso  ? C
   C18        1.0     0.170009     0.739747     0.203971    Uiso  ? C
   C19        1.0     0.181753     0.717676     0.215254    Uiso  ? C
   H9         1.0     0.173559     0.709553     0.233249    Uiso  ? H
   C20        1.0     0.204939     0.706910     0.204688    Uiso  ? C
   H10        1.0     0.215639     0.690943     0.214299    Uiso  ? H
   C21        1.0     0.216578     0.717578     0.182386    Uiso  ? C
   H11        1.0     0.235369     0.709873     0.176732    Uiso  ? H
   C22        1.0     0.205806     0.740010     0.170461    Uiso  ? C
   C23        1.0     0.181586     0.749727     0.181082    Uiso  ? C
   H12        1.0     0.172218     0.766487     0.170933    Uiso  ? H
   C24        1.0     0.218182     0.752157     0.147224    Uiso  ? C
   C25        1.0     0.127690     0.795046     0.260072    Uiso  ? C
   C26        1.0     0.142409     0.814147     0.275925    Uiso  ? C
   C27        1.0     0.137621     0.816528     0.303426    Uiso  ? C
   H13        1.0     0.123475     0.803418     0.312939    Uiso  ? H
   C28        1.0     0.150076     0.836657     0.317741    Uiso  ? C
   H14        1.0     0.145982     0.838701     0.338560    Uiso  ? H
   C29        1.0     0.169179     0.852578     0.306055    Uiso  ? C
   H15        1.0     0.179149     0.867716     0.316894    Uiso  ? H
   C30        1.0     0.173561     0.850848     0.278441    Uiso  ? C
   C31        1.0     0.160317     0.831112     0.263883    Uiso  ? C
   H16        1.0     0.165040     0.829107     0.243304    Uiso  ? H
   C32        1.0     0.191668     0.868231     0.264605    Uiso  ? C
   C33        1.0     0.733220     0.138785     0.202295    Uiso  ? C
   C34        1.0     0.719644     0.160375     0.187742    Uiso  ? C
   C35        1.0     0.695379     0.170904     0.197346    Uiso  ? C
   H17        1.0     0.684508     0.161166     0.213425    Uiso  ? H
   C36        1.0     0.684680     0.192892     0.184889    Uiso  ? C
   H18        1.0     0.667419     0.202417     0.192889    Uiso  ? H
   C37        1.0     0.696663     0.205254     0.163555    Uiso  ? C
   H19        1.0     0.688707     0.223400     0.155299    Uiso  ? H
   C38        1.0     0.721122     0.195404     0.154293    Uiso  ? C
   C39        1.0     0.732578     0.172668     0.166387    Uiso  ? C
   H20        1.0     0.751354     0.165003     0.158055    Uiso  ? H
   C40        1.0     0.737028     0.208648     0.132727    Uiso  ? C
   C41        1.0     0.751284     0.857455     0.210489    Uiso  ? C
   C42        1.0     0.742667     0.830863     0.200979    Uiso  ? C
   C43        1.0     0.720207     0.819530     0.211950    Uiso  ? C
   H21        1.0     0.710681     0.827466     0.229087    Uiso  ? H
   C44        1.0     0.708722     0.797050     0.200205    Uiso  ? C
   H22        1.0     0.690295     0.788690     0.208848    Uiso  ? H
   C45        1.0     0.719840     0.785642     0.178120    Uiso  ? C
   H23        1.0     0.710845     0.768172     0.170107    Uiso  ? H
   C46        1.0     0.742906     0.795933     0.167192    Uiso  ? C
   C47        1.0     0.754545     0.818404     0.178824    Uiso  ? C
   H24        1.0     0.771858     0.826259     0.169901    Uiso  ? H
   C48        1.0     0.754123     0.785456     0.142894    Uiso  ? C
   C49        1.0     0.792885     0.136049     0.255283    Uiso  ? C
   C50        1.0     0.810336     0.153024     0.270241    Uiso  ? C
   C51        1.0     0.808758     0.153419     0.297881    Uiso  ? C
   H25        1.0     0.796664     0.138946     0.307481    Uiso  ? H
   C52        1.0     0.824792     0.169952     0.312913    Uiso  ? C
   H26        1.0     0.824966     0.169345     0.334673    Uiso  ? H
   C53        1.0     0.843191     0.187026     0.300936    Uiso  ? C
   H27        1.0     0.855265     0.200394     0.313175    Uiso  ? H
   C54        1.0     0.842405     0.188756     0.273162    Uiso  ? C
   C55        1.0     0.826532     0.171626     0.258058    Uiso  ? C
   H28        1.0     0.826892     0.172858     0.236341    Uiso  ? H
   C56        1.0     0.859446     0.208628     0.258699    Uiso  ? C
   C57        1.0     0.741213     0.790813     0.856859    Uiso  ? C
   C58        1.0     0.728473     0.804066     0.834297    Uiso  ? C
   C59        1.0     0.706209     0.792545     0.822384    Uiso  ? C
   H29        1.0     0.698615     0.773530     0.829301    Uiso  ? H
   C60        1.0     0.693003     0.805905     0.801870    Uiso  ? C
   H30        1.0     0.675148     0.797519     0.794335    Uiso  ? H
   C61        1.0     0.702915     0.830279     0.792595    Uiso  ? C
   H31        1.0     0.692381     0.841073     0.777422    Uiso  ? H
   C62        1.0     0.726312     0.841778     0.804325    Uiso  ? C
   C63        1.0     0.738296     0.828448     0.825363    Uiso  ? C
   H32        1.0     0.755272     0.837006     0.834779    Uiso  ? H
   C64        1.0     0.738195     0.865186     0.792415    Uiso  ? C
   C65        1.0     0.802886     0.744055     0.862008    Uiso  ? C
   C66        1.0     0.820190     0.730636     0.843369    Uiso  ? C
   C67        1.0     0.816556     0.703844     0.836681    Uiso  ? C
   H33        1.0     0.802259     0.692195     0.847765    Uiso  ? H
   C68        1.0     0.830534     0.692884     0.815629    Uiso  ? C
   H34        1.0     0.828014     0.672546     0.811476    Uiso  ? H
   C69        1.0     0.847854     0.708290     0.800628    Uiso  ? C
   H35        1.0     0.857422     0.699475     0.784437    Uiso  ? H
   C70        1.0     0.851334     0.734981     0.806650    Uiso  ? C
   C71        1.0     0.837955     0.746048     0.828213    Uiso  ? C
   H36        1.0     0.841389     0.766973     0.832365    Uiso  ? H
   C72        1.0     0.869925     0.750124     0.789871    Uiso  ? C
   C73        1.0     0.849357     0.254749     0.215643    Uiso  ? C
   C74        1.0     0.824273     0.265171     0.204809    Uiso  ? C
   C75        1.0     0.814059     0.289984     0.214167    Uiso  ? C
   H37        1.0     0.823427     0.299817     0.230813    Uiso  ? H
   C76        1.0     0.793182     0.302335     0.201223    Uiso  ? C
   H38        1.0     0.786667     0.322011     0.207191    Uiso  ? H
   C77        1.0     0.782585     0.290360     0.178674    Uiso  ? C
   H39        1.0     0.766523     0.299298     0.168003    Uiso  ? H
   C78        1.0     0.791461     0.265040     0.169612    Uiso  ? C
   C79        1.0     0.812033     0.252669     0.183495    Uiso  ? C
   H40        1.0     0.821446     0.234855     0.175542    Uiso  ? H
   C80        1.0     0.782545     0.253890     0.143721    Uiso  ? C
   C81        1.0     0.125198     0.202765     0.262997    Uiso  ? C
   C82        1.0     0.141722     0.184389     0.278903    Uiso  ? C
   C83        1.0     0.142340     0.186178     0.306512    Uiso  ? C
   H41        1.0     0.131360     0.201353     0.316339    Uiso  ? H
   C84        1.0     0.158593     0.169736     0.321411    Uiso  ? C
   H42        1.0     0.159854     0.172307     0.342719    Uiso  ? H
   C85        1.0     0.175176     0.150954     0.308126    Uiso  ? C
   H43        1.0     0.188897     0.138994     0.319389    Uiso  ? H
   C86        1.0     0.174214     0.148532     0.280446    Uiso  ? C
   C87        1.0     0.157391     0.165613     0.266036    Uiso  ? C
   H44        1.0     0.156760     0.164080     0.244906    Uiso  ? H
   C88        1.0     0.192178     0.130387     0.265958    Uiso  ? C
   C89        1.0     0.255373     0.863428     0.216935    Uiso  ? C
   C90        1.0     0.270152     0.841638     0.203095    Uiso  ? C
   C91        1.0     0.295933     0.834946     0.211196    Uiso  ? C
   H45        1.0     0.303660     0.843354     0.230010    Uiso  ? H
   C92        1.0     0.309204     0.814724     0.197782    Uiso  ? C
   H46        1.0     0.328467     0.807973     0.204906    Uiso  ? H
   C93        1.0     0.298593     0.802344     0.175301    Uiso  ? C
   H47        1.0     0.310282     0.786487     0.166690    Uiso  ? H
   C94        1.0     0.272992     0.808977     0.166732    Uiso  ? C
   C95        1.0     0.259631     0.829175     0.181079    Uiso  ? C
   H48        1.0     0.240053     0.836165     0.174831    Uiso  ? H
   C96        1.0     0.261357     0.797068     0.142579    Uiso  ? C
   O1         1.0     0.868751     0.805074     0.231261    Uiso  ? O
   O2         1.0     0.871764     0.778318     0.266402    Uiso  ? O
   O3         1.0     0.878220     0.755252     0.191415    Uiso  ? O
   O4         1.0     0.861189     0.735641     0.226974    Uiso  ? O
   O5         1.0     0.139491     0.774725     0.212284    Uiso  ? O
   O6         1.0     0.130215     0.735761     0.228872    Uiso  ? O
   O7         1.0     0.130558     0.795370     0.234964    Uiso  ? O
   O8         1.0     0.109841     0.780453     0.270904    Uiso  ? O
   O9         1.0     0.748290     0.123408     0.189769    Uiso  ? O
   O10        1.0     0.731009     0.136708     0.227032    Uiso  ? O
   O11        1.0     0.774528     0.865950     0.205130    Uiso  ? O
   O12        1.0     0.735993     0.870858     0.225448    Uiso  ? O
   O13        1.0     0.796310     0.874983     0.230318    Uiso  ? O
   O14        1.0     0.777487     0.887217     0.267566    Uiso  ? O
   O15        1.0     0.796115     0.132929     0.230736    Uiso  ? O
   O16        1.0     0.774897     0.122476     0.267616    Uiso  ? O
   O17        1.0     0.754052     0.804141     0.874090    Uiso  ? O
   O18        1.0     0.740539     0.766218     0.858885    Uiso  ? O
   O19        1.0     0.806873     0.768089     0.866873    Uiso  ? O
   O20        1.0     0.784941     0.731404     0.875054    Uiso  ? O
   O21        1.0     0.798177     0.765807     0.127214    Uiso  ? O
   O22        1.0     0.783600     0.727043     0.110650    Uiso  ? O
   O23        1.0     0.777256     0.791336     0.135637    Uiso  ? O
   O24        1.0     0.740176     0.770137     0.128877    Uiso  ? O
   O25        1.0     0.857430     0.232330     0.208861    Uiso  ? O
   O26        1.0     0.862062     0.268178     0.233337    Uiso  ? O
   O27        1.0     0.860015     0.208459     0.233285    Uiso  ? O
   O28        1.0     0.875747     0.223532     0.271539    Uiso  ? O
   O29        1.0     0.121170     0.197934     0.238629    Uiso  ? O
   O30        1.0     0.113836     0.222567     0.273996    Uiso  ? O
   O31        1.0     0.119987     0.245134     0.194818    Uiso  ? O
   O32        1.0     0.128619     0.267787     0.230646    Uiso  ? O
   O33        1.0     0.192546     0.130142     0.240445    Uiso  ? O
   O34        1.0     0.207270     0.114898     0.278852    Uiso  ? O
   O35        1.0     0.189767     0.871149     0.239484    Uiso  ? O
   O36        1.0     0.209027     0.881325     0.277803    Uiso  ? O
   O37        1.0     0.242400     0.880003     0.203169    Uiso  ? O
   O38        1.0     0.254428     0.864745     0.242069    Uiso  ? O
   O39        1.0     0.215657     0.138874     0.217759    Uiso  ? O
   O40        1.0     0.252942     0.133448     0.239819    Uiso  ? O
   O41        1.0     0.809151     0.243422     0.883830    Uiso  ? O
   O42        1.0     0.774082     0.262642     0.865990    Uiso  ? O
   O43        1.0     0.758257     0.203859     0.866334    Uiso  ? O
   O44        1.0     0.750380     0.245377     0.854585    Uiso  ? O
   O45        1.0     0.762337     0.206013     0.132194    Uiso  ? O
   O46        1.0     0.725023     0.222394     0.115288    Uiso  ? O
   O47        1.0     0.785064     0.229144     0.138594    Uiso  ? O
   O48        1.0     0.769940     0.268601     0.127278    Uiso  ? O
   O49        1.0     0.896560     0.810865     0.174977    Uiso  ? O
   O50        1.0     0.804450     0.112555     0.169886    Uiso  ? O
   O51        1.0     0.810891     0.823782     0.892064    Uiso  ? O
   O52        1.0     0.102774     0.188247     0.179754    Uiso  ? O
   O53        1.0     0.186508     0.891489     0.181788    Uiso  ? O
   O54        1.0     0.813632     0.181732     0.894276    Uiso  ? O
   Zn1        1.0     0.896712     0.786693     0.207503    Uiso  ? Zn
   Zn2        1.0     0.894057     0.744950     0.250788    Uiso  ? Zn
   Zn3        1.0     0.781465     0.106594     0.203392    Uiso  ? Zn
   Zn4        1.0     0.741729     0.103969     0.250263    Uiso  ? Zn
   Zn5        1.0     0.787357     0.791257     0.894174    Uiso  ? Zn
   Zn6        1.0     0.749276     0.745906     0.894024    Uiso  ? Zn
   Zn7        1.0     0.895207     0.215195     0.209946    Uiso  ? Zn
   Zn8        1.0     0.895410     0.258468     0.255527    Uiso  ? Zn
   Zn9        1.0     0.207738     0.897452     0.216381    Uiso  ? Zn
   Zn10       1.0     0.244538     0.898694     0.262621    Uiso  ? Zn
   Zn11       1.0     0.785636     0.213210     0.896570    Uiso  ? Zn
   Zn12       1.0     0.744496     0.256038     0.895673    Uiso  ? Zn
   C97        1.0     0.151060     0.218410     0.754298    Uiso  ? C
   C98        1.0     0.176910     0.207427     0.744622    Uiso  ? C
   C99        1.0     0.188794     0.219126     0.722480    Uiso  ? C
   H49        1.0     0.181108     0.238276     0.714248    Uiso  ? H
   C100       1.0     0.209608     0.206710     0.710689    Uiso  ? C
   H50        1.0     0.217341     0.212631     0.691628    Uiso  ? H
   C101       1.0     0.220861     0.184333     0.722421    Uiso  ? C
   H51        1.0     0.238789     0.176189     0.713693    Uiso  ? H
   C102       1.0     0.210639     0.173559     0.745920    Uiso  ? C
   C103       1.0     0.188712     0.185400     0.756991    Uiso  ? C
   H52        1.0     0.180243     0.177167     0.775148    Uiso  ? H
   C104       1.0     0.222544     0.149400     0.756627    Uiso  ? C
   C105       1.0     0.134893     0.258860     0.801639    Uiso  ? C
   C106       1.0     0.152964     0.274276     0.817595    Uiso  ? C
   C107       1.0     0.160247     0.299478     0.810073    Uiso  ? C
   H53        1.0     0.150618     0.309304     0.794394    Uiso  ? H
   C108       1.0     0.180168     0.312737     0.823066    Uiso  ? C
   H54        1.0     0.184567     0.333070     0.816532    Uiso  ? H
   C109       1.0     0.193706     0.300599     0.843969    Uiso  ? C
   H55        1.0     0.210824     0.310217     0.854068    Uiso  ? H
   C110       1.0     0.186922     0.275511     0.852205    Uiso  ? C
   C111       1.0     0.166083     0.262591     0.839604    Uiso  ? C
   H56        1.0     0.161422     0.242682     0.846199    Uiso  ? H
   C112       1.0     0.201829     0.261375     0.872915    Uiso  ? C
   C113       1.0     0.870057     0.259552     0.801777    Uiso  ? C
   C114       1.0     0.851348     0.275124     0.817504    Uiso  ? C
   C115       1.0     0.849859     0.303370     0.815339    Uiso  ? C
   H57        1.0     0.863719     0.314711     0.803115    Uiso  ? H
   C116       1.0     0.830664     0.316990     0.829922    Uiso  ? C
   H58        1.0     0.829892     0.338255     0.828227    Uiso  ? H
   C117       1.0     0.813775     0.303177     0.847426    Uiso  ? C
   H59        1.0     0.798159     0.313552     0.858919    Uiso  ? H
   C118       1.0     0.817026     0.276402     0.850846    Uiso  ? C
   C119       1.0     0.834508     0.261956     0.835349    Uiso  ? C
   H60        1.0     0.834085     0.240745     0.836455    Uiso  ? H
   C120       1.0     0.799431     0.261200     0.868641    Uiso  ? C
   C121       1.0     0.868050     0.201771     0.742001    Uiso  ? C
   C122       1.0     0.847044     0.186386     0.728752    Uiso  ? C
   C123       1.0     0.839278     0.193666     0.703568    Uiso  ? C
   H61        1.0     0.848931     0.210990     0.694473    Uiso  ? H
   C124       1.0     0.818371     0.181408     0.690145    Uiso  ? C
   H62        1.0     0.813125     0.186782     0.670190    Uiso  ? H
   C125       1.0     0.804608     0.161300     0.703466    Uiso  ? C
   H63        1.0     0.786122     0.153022     0.694856    Uiso  ? H
   C126       1.0     0.813318     0.152387     0.728110    Uiso  ? C
   C127       1.0     0.834933     0.164405     0.740281    Uiso  ? C
   H64        1.0     0.840046     0.159566     0.760293    Uiso  ? H
   C128       1.0     0.796840     0.132558     0.741813    Uiso  ? C
   C129       1.0     0.271225     0.877746     0.809698    Uiso  ? C
   C130       1.0     0.286268     0.862612     0.830277    Uiso  ? C
   C131       1.0     0.313285     0.864714     0.832975    Uiso  ? C
   H65        1.0     0.323369     0.878540     0.820470    Uiso  ? H
   C132       1.0     0.327603     0.847941     0.849626    Uiso  ? C
   H66        1.0     0.348503     0.848504     0.850072    Uiso  ? H
   C133       1.0     0.314496     0.828975     0.865157    Uiso  ? C
   H67        1.0     0.325342     0.815840     0.877932    Uiso  ? H
   C134       1.0     0.287003     0.827057     0.863403    Uiso  ? C
   C135       1.0     0.272744     0.843856     0.846185    Uiso  ? C
   H68        1.0     0.251928     0.840792     0.843276    Uiso  ? H
   C136       1.0     0.271063     0.807898     0.879218    Uiso  ? C
   C137       1.0     0.263569     0.138221     0.804055    Uiso  ? C
   C138       1.0     0.276802     0.156570     0.821835    Uiso  ? C
   C139       1.0     0.304870     0.156134     0.823953    Uiso  ? C
   H69        1.0     0.316258     0.141406     0.812641    Uiso  ? H
   C140       1.0     0.317647     0.174122     0.840655    Uiso  ? C
   H70        1.0     0.338864     0.174432     0.841247    Uiso  ? H
   C141       1.0     0.303044     0.189978     0.858919    Uiso  ? C
   H71        1.0     0.314061     0.202607     0.873411    Uiso  ? H
   C142       1.0     0.275015     0.188788     0.858388    Uiso  ? C
   C143       1.0     0.262293     0.172945     0.839444    Uiso  ? C
   H72        1.0     0.241549     0.172421     0.839142    Uiso  ? H
   C144       1.0     0.259828     0.204592     0.876978    Uiso  ? C
   C145       1.0     0.219893     0.864988     0.746400    Uiso  ? C
   C146       1.0     0.208242     0.840125     0.735420    Uiso  ? C
   C147       1.0     0.223979     0.825985     0.717225    Uiso  ? C
   H73        1.0     0.242995     0.832977     0.711271    Uiso  ? H
   C148       1.0     0.214051     0.802980     0.705397    Uiso  ? C
   H74        1.0     0.226139     0.790453     0.692555    Uiso  ? H
   C149       1.0     0.188428     0.794406     0.712668    Uiso  ? C
   H75        1.0     0.180577     0.776325     0.703298    Uiso  ? H
   C150       1.0     0.172831     0.807872     0.731106    Uiso  ? C
   C151       1.0     0.182783     0.830808     0.741760    Uiso  ? C
   H76        1.0     0.170315     0.842776     0.754624    Uiso  ? H
   C152       1.0     0.149075     0.795861     0.742242    Uiso  ? C
   C153       1.0     0.241160     0.217344     0.155810    Uiso  ? C
   C154       1.0     0.249618     0.206981     0.181321    Uiso  ? C
   C155       1.0     0.268897     0.220858     0.196658    Uiso  ? C
   H77        1.0     0.278728     0.239079     0.189961    Uiso  ? H
   C156       1.0     0.278075     0.210507     0.220031    Uiso  ? C
   H78        1.0     0.293862     0.220357     0.230717    Uiso  ? H
   C157       1.0     0.267503     0.186764     0.229547    Uiso  ? C
   H79        1.0     0.274948     0.178245     0.248137    Uiso  ? H
   C158       1.0     0.248098     0.173133     0.215396    Uiso  ? C
   C159       1.0     0.238402     0.183795     0.191696    Uiso  ? C
   H80        1.0     0.221072     0.174347     0.182297    Uiso  ? H
   C160       1.0     0.238647     0.147489     0.224541    Uiso  ? C
   C161       1.0     0.203599     0.262930     0.139230    Uiso  ? C
   C162       1.0     0.189258     0.276947     0.159646    Uiso  ? C
   C163       1.0     0.197761     0.302208     0.168596    Uiso  ? C
   H81        1.0     0.212586     0.312974     0.158426    Uiso  ? H
   C164       1.0     0.186221     0.313637     0.190690    Uiso  ? C
   H82        1.0     0.192556     0.333611     0.197578    Uiso  ? H
   C165       1.0     0.165546     0.300102     0.203052    Uiso  ? C
   H83        1.0     0.156925     0.308330     0.220055    Uiso  ? H
   C166       1.0     0.156010     0.275252     0.193973    Uiso  ? C
   C167       1.0     0.167715     0.264474     0.171406    Uiso  ? C
   H84        1.0     0.160736     0.246323     0.163856    Uiso  ? H
   C168       1.0     0.133067     0.263347     0.206539    Uiso  ? C
   C169       1.0     0.150693     0.751187     0.789676    Uiso  ? C
   C170       1.0     0.174703     0.738593     0.802165    Uiso  ? C
   C171       1.0     0.188970     0.719547     0.787740    Uiso  ? C
   H85        1.0     0.182708     0.714307     0.768845    Uiso  ? H
   C172       1.0     0.213176     0.710396     0.797361    Uiso  ? C
   H86        1.0     0.224411     0.696692     0.785700    Uiso  ? H
   C173       1.0     0.223056     0.718856     0.822108    Uiso  ? C
   H87        1.0     0.242362     0.712879     0.826994    Uiso  ? H
   C174       1.0     0.208452     0.736340     0.837668    Uiso  ? C
   C175       1.0     0.184458     0.746632     0.827188    Uiso  ? C
   H88        1.0     0.174562     0.761472     0.838419    Uiso  ? H
   C176       1.0     0.219406     0.747679     0.861969    Uiso  ? C
   C177       1.0     0.868469     0.798471     0.743386    Uiso  ? C
   C178       1.0     0.848634     0.814586     0.728499    Uiso  ? C
   C179       1.0     0.841917     0.807418     0.702703    Uiso  ? C
   H89        1.0     0.851806     0.791135     0.693216    Uiso  ? H
   C180       1.0     0.821816     0.819556     0.689327    Uiso  ? C
   H90        1.0     0.815837     0.811779     0.671051    Uiso  ? H
   C181       1.0     0.809437     0.841999     0.699831    Uiso  ? C
   H91        1.0     0.793539     0.850510     0.689130    Uiso  ? H
   C182       1.0     0.814991     0.849989     0.725427    Uiso  ? C
   C183       1.0     0.834012     0.835165     0.740421    Uiso  ? C
   H92        1.0     0.837652     0.839193     0.761346    Uiso  ? H
   C184       1.0     0.798848     0.869517     0.739552    Uiso  ? C
   C185       1.0     0.749953     0.150718     0.779592    Uiso  ? C
   C186       1.0     0.743512     0.178543     0.787519    Uiso  ? C
   C187       1.0     0.733182     0.197466     0.769624    Uiso  ? C
   H93        1.0     0.728047     0.191951     0.749366    Uiso  ? H
   C188       1.0     0.729161     0.223048     0.777947    Uiso  ? C
   H94        1.0     0.722680     0.238854     0.764749    Uiso  ? H
   C189       1.0     0.734545     0.229787     0.803911    Uiso  ? C
   H95        1.0     0.733079     0.250238     0.810087    Uiso  ? H
   C190       1.0     0.743633     0.211439     0.822240    Uiso  ? C
   C191       1.0     0.747745     0.185122     0.814446    Uiso  ? C
   H96        1.0     0.754615     0.171577     0.829809    Uiso  ? H
   C192       1.0     0.750291     0.220342     0.849061    Uiso  ? C
   O55        1.0     0.142901     0.212177     0.777422    Uiso  ? O
   O56        1.0     0.136711     0.232531     0.739560    Uiso  ? O
   O57        1.0     0.134066     0.233678     0.802524    Uiso  ? O
   O58        1.0     0.119027     0.270775     0.785405    Uiso  ? O
   O59        1.0     0.871600     0.234703     0.804703    Uiso  ? O
   O60        1.0     0.884373     0.270677     0.784165    Uiso  ? O
   O61        1.0     0.884302     0.189777     0.757315    Uiso  ? O
   O62        1.0     0.868759     0.227052     0.739939    Uiso  ? O
   O63        1.0     0.245969     0.878157     0.811142    Uiso  ? O
   O64        1.0     0.283430     0.892169     0.792079    Uiso  ? O
   O65        1.0     0.238122     0.136734     0.802923    Uiso  ? O
   O66        1.0     0.276767     0.122937     0.789026    Uiso  ? O
   O67        1.0     0.216288     0.141075     0.779486    Uiso  ? O
   O68        1.0     0.239286     0.136406     0.743480    Uiso  ? O
   O69        1.0     0.204479     0.882103     0.757767    Uiso  ? O
   O70        1.0     0.244900     0.868218     0.748306    Uiso  ? O
   O71        1.0     0.226139     0.203429     0.141468    Uiso  ? O
   O72        1.0     0.249059     0.239857     0.148102    Uiso  ? O
   O73        1.0     0.191461     0.246654     0.124122    Uiso  ? O
   O74        1.0     0.228722     0.264619     0.138412    Uiso  ? O
   O75        1.0     0.189468     0.244791     0.887010    Uiso  ? O
   O76        1.0     0.226334     0.264923     0.875797    Uiso  ? O
   O77        1.0     0.234881     0.205231     0.874367    Uiso  ? O
   O78        1.0     0.271520     0.218257     0.894446    Uiso  ? O
   O79        1.0     0.134632     0.764804     0.803749    Uiso  ? O
   O80        1.0     0.146588     0.748920     0.764585    Uiso  ? O
   O81        1.0     0.132603     0.809413     0.755681    Uiso  ? O
   O82        1.0     0.146543     0.770739     0.741035    Uiso  ? O
   O83        1.0     0.869694     0.799764     0.768488    Uiso  ? O
   O84        1.0     0.885489     0.785083     0.730419    Uiso  ? O
   O85        1.0     0.870887     0.775272     0.791252    Uiso  ? O
   O86        1.0     0.886275     0.737985     0.775292    Uiso  ? O
   O87        1.0     0.808278     0.883766     0.758130    Uiso  ? O
   O88        1.0     0.774765     0.872466     0.732173    Uiso  ? O
   O89        1.0     0.807373     0.116345     0.758087    Uiso  ? O
   O90        1.0     0.771773     0.131687     0.737225    Uiso  ? O
   O91        1.0     0.764078     0.137091     0.794959    Uiso  ? O
   O92        1.0     0.745746     0.142069     0.756441    Uiso  ? O
   O93        1.0     0.761366     0.870665     0.798698    Uiso  ? O
   O94        1.0     0.727768     0.877793     0.773475    Uiso  ? O
   O95        1.0     0.212499     0.776586     0.141072    Uiso  ? O
   O96        1.0     0.235533     0.739342     0.132999    Uiso  ? O
   O97        1.0     0.236867     0.799006     0.138710    Uiso  ? O
   O98        1.0     0.276515     0.782930     0.127262    Uiso  ? O
   O99        1.0     0.246462     0.809656     0.879232    Uiso  ? O
   O100       1.0     0.282362     0.789189     0.891393    Uiso  ? O
   O101       1.0     0.204833     0.760990     0.877365    Uiso  ? O
   O102       1.0     0.244230     0.747808     0.865101    Uiso  ? O
   O103       1.0     0.896828     0.176347     0.811922    Uiso  ? O
   O104       1.0     0.188607     0.890353     0.817006    Uiso  ? O
   O105       1.0     0.187904     0.182185     0.892773    Uiso  ? O
   O106       1.0     0.115105     0.825957     0.813881    Uiso  ? O
   O107       1.0     0.807926     0.100704     0.824103    Uiso  ? O
   O108       1.0     0.186417     0.818961     0.896210    Uiso  ? O
   Zn13       1.0     0.103159     0.209523     0.789504    Uiso  ? Zn
   Zn14       1.0     0.102739     0.253857     0.750121    Uiso  ? Zn
   Zn15       1.0     0.217519     0.101384     0.790946    Uiso  ? Zn
   Zn16       1.0     0.263009     0.103335     0.754936    Uiso  ? Zn
   Zn17       1.0     0.208914     0.213193     0.105977    Uiso  ? Zn
   Zn18       1.0     0.253575     0.253194     0.108028    Uiso  ? Zn
   Zn19       1.0     0.110023     0.794607     0.788135    Uiso  ? Zn
   Zn20       1.0     0.110183     0.752945     0.743783    Uiso  ? Zn
   Zn21       1.0     0.785787     0.101449     0.789727    Uiso  ? Zn
   Zn22       1.0     0.745604     0.900000     0.743417    Uiso  ? Zn
   Zn23       1.0     0.216760     0.790434     0.102626    Uiso  ? Zn
   Zn24       1.0     0.263594     0.752270     0.102867    Uiso  ? Zn
   H97        1.0     0.194652     0.886071     0.834545    Uiso  ? H
   H98        1.0     0.172503     0.883547     0.809250    Uiso  ? H
   H99        1.0     0.798777     0.123056     0.154745    Uiso  ? H
   H100       1.0     0.822610     0.106867     0.169716    Uiso  ? H
   H101       1.0     0.825268     0.179922     0.879299    Uiso  ? H
   H102       1.0     0.817980     0.171565     0.111706    Uiso  ? H
   H103       1.0     0.102671     0.193404     0.161327    Uiso  ? H
   H104       1.0     0.105135     0.170307     0.185812    Uiso  ? H
   H105       1.0     0.188506     0.837834     0.893117    Uiso  ? H
   H106       1.0     0.169223     0.811526     0.893097    Uiso  ? H
   H107       1.0     0.885185     0.826190     0.174675    Uiso  ? H
   H108       1.0     0.111165     0.807677     0.160391    Uiso  ? H
   H109       1.0     0.170113     0.102240     0.179380    Uiso  ? H
   H110       1.0     0.193170     0.880175     0.167897    Uiso  ? H
   H111       1.0     0.117692     0.823340     0.832481    Uiso  ? H
   H112       1.0     0.118226     0.843886     0.807602    Uiso  ? H
   H113       1.0     0.821776     0.827616     0.108427    Uiso  ? H
   H114       1.0     0.814559     0.830427     0.874631    Uiso  ? H
   H115       1.0     0.825509     0.107779     0.823522    Uiso  ? H
   H116       1.0     0.801621     0.895208     0.840718    Uiso  ? H
   H117       1.0     0.193464     0.164383     0.896854    Uiso  ? H
   H118       1.0     0.169557     0.185125     0.888400    Uiso  ? H
   H119       1.0     0.878973     0.170305     0.815043    Uiso  ? H
   H120       1.0     0.114283     0.171100     0.822789    Uiso  ? H
   C193       1.0     0.849738     0.613862     0.349273    Uiso  ? C
   C194       1.0     0.823921     0.602732     0.340940    Uiso  ? C
   C195       1.0     0.808456     0.614551     0.320679    Uiso  ? C
   H121       1.0     0.815536     0.632497     0.310149    Uiso  ? H
   C196       1.0     0.783875     0.604993     0.314057    Uiso  ? C
   H122       1.0     0.773807     0.613127     0.297491    Uiso  ? H
   C197       1.0     0.774096     0.582514     0.326719    Uiso  ? C
   H123       1.0     0.755644     0.574295     0.320641    Uiso  ? H
   C198       1.0     0.789316     0.570323     0.346980    Uiso  ? C
   C199       1.0     0.814581     0.580041     0.354094    Uiso  ? C
   H124       1.0     0.826406     0.571380     0.368764    Uiso  ? H
   C200       1.0     0.779881     0.544897     0.358533    Uiso  ? C
   C201       1.0     0.862960     0.656478     0.394244    Uiso  ? C
   C202       1.0     0.842873     0.671483     0.410398    Uiso  ? C
   C203       1.0     0.835855     0.697036     0.403430    Uiso  ? C
   H125       1.0     0.845940     0.706313     0.386793    Uiso  ? H
   C204       1.0     0.817407     0.711405     0.418076    Uiso  ? C
   H126       1.0     0.813295     0.732228     0.413033    Uiso  ? H
   C205       1.0     0.803974     0.699722     0.438576    Uiso  ? C
   H127       1.0     0.789227     0.709973     0.450034    Uiso  ? H
   C206       1.0     0.809350     0.673494     0.444794    Uiso  ? C
   C207       1.0     0.828547     0.659462     0.430442    Uiso  ? C
   H128       1.0     0.832246     0.639174     0.435995    Uiso  ? H
   C208       1.0     0.795364     0.660140     0.466147    Uiso  ? C
   C209       1.0     0.130382     0.661647     0.395352    Uiso  ? C
   C210       1.0     0.150670     0.675898     0.409482    Uiso  ? C
   C211       1.0     0.159067     0.700787     0.400635    Uiso  ? C
   H129       1.0     0.149155     0.709776     0.384154    Uiso  ? H
   C212       1.0     0.180538     0.713995     0.411961    Uiso  ? C
   H130       1.0     0.186987     0.732960     0.403807    Uiso  ? H
   C213       1.0     0.193931     0.703204     0.433536    Uiso  ? C
   H131       1.0     0.209249     0.714184     0.443654    Uiso  ? H
   C214       1.0     0.187001     0.677391     0.442104    Uiso  ? C
   C215       1.0     0.165741     0.663711     0.430154    Uiso  ? C
   H132       1.0     0.160556     0.644451     0.436721    Uiso  ? H
   C216       1.0     0.201695     0.664369     0.463690    Uiso  ? C
   C217       1.0     0.131845     0.600668     0.338169    Uiso  ? C
   C218       1.0     0.152169     0.585678     0.323317    Uiso  ? C
   C219       1.0     0.159398     0.593123     0.297289    Uiso  ? C
   H133       1.0     0.151295     0.609429     0.287150    Uiso  ? H
   C220       1.0     0.177788     0.577983     0.283066    Uiso  ? C
   H134       1.0     0.184005     0.584465     0.263577    Uiso  ? H
   C221       1.0     0.189763     0.556540     0.295117    Uiso  ? C
   H135       1.0     0.205457     0.546815     0.284942    Uiso  ? H
   C222       1.0     0.183311     0.548735     0.321403    Uiso  ? C
   C223       1.0     0.163528     0.563116     0.334524    Uiso  ? C
   H136       1.0     0.158805     0.557176     0.354084    Uiso  ? H
   C224       1.0     0.199074     0.528546     0.335954    Uiso  ? C
   C225       1.0     0.737271     0.466803     0.408467    Uiso  ? C
   C226       1.0     0.723178     0.449020     0.427484    Uiso  ? C
   C227       1.0     0.695200     0.450134     0.429642    Uiso  ? C
   H137       1.0     0.683319     0.463658     0.418406    Uiso  ? H
   C228       1.0     0.682361     0.433363     0.447063    Uiso  ? C
   H138       1.0     0.661481     0.433980     0.449048    Uiso  ? H
   C229       1.0     0.695982     0.414573     0.462466    Uiso  ? C
   H139       1.0     0.685626     0.402608     0.477195    Uiso  ? H
   C230       1.0     0.723699     0.413070     0.459578    Uiso  ? C
   C231       1.0     0.737354     0.430930     0.442683    Uiso  ? C
   H140       1.0     0.759118     0.428907     0.441256    Uiso  ? H
   C232       1.0     0.738391     0.394506     0.476316    Uiso  ? C
   C233       1.0     0.737494     0.528084     0.405208    Uiso  ? C
   C234       1.0     0.723128     0.545245     0.423780    Uiso  ? C
   C235       1.0     0.695375     0.543649     0.425356    Uiso  ? C
   H141       1.0     0.683961     0.528357     0.415536    Uiso  ? H
   C236       1.0     0.682722     0.559193     0.445126    Uiso  ? C
   H142       1.0     0.661320     0.559873     0.446734    Uiso  ? H
   C237       1.0     0.697129     0.577106     0.461241    Uiso  ? C
   H143       1.0     0.686139     0.590334     0.474103    Uiso  ? H
   C238       1.0     0.723672     0.579755     0.458259    Uiso  ? C
   C239       1.0     0.737184     0.562717     0.440279    Uiso  ? C
   H144       1.0     0.758877     0.564864     0.438069    Uiso  ? H
   C240       1.0     0.739269     0.598588     0.473732    Uiso  ? C
   C241       1.0     0.787669     0.461235     0.343703    Uiso  ? C
   C242       1.0     0.799905     0.438198     0.331449    Uiso  ? C
   C243       1.0     0.787655     0.424846     0.309413    Uiso  ? C
   H145       1.0     0.770323     0.432324     0.299531    Uiso  ? H
   C244       1.0     0.799228     0.402537     0.298581    Uiso  ? C
   H146       1.0     0.789350     0.392193     0.282635    Uiso  ? H
   C245       1.0     0.822187     0.392311     0.309820    Uiso  ? C
   H147       1.0     0.829509     0.373202     0.302933    Uiso  ? H
   C246       1.0     0.834247     0.404907     0.331593    Uiso  ? C
   C247       1.0     0.823872     0.428566     0.341345    Uiso  ? C
   H148       1.0     0.832750     0.438576     0.358035    Uiso  ? H
   C248       1.0     0.857333     0.392679     0.344250    Uiso  ? C
   C249       1.0     0.746504     0.604966     0.537712    Uiso  ? C
   C250       1.0     0.732826     0.588035     0.557048    Uiso  ? C
   C251       1.0     0.705237     0.587399     0.558074    Uiso  ? C
   H149       1.0     0.693272     0.600170     0.545579    Uiso  ? H
   C252       1.0     0.692612     0.571751     0.576138    Uiso  ? C
   H150       1.0     0.671371     0.573250     0.578286    Uiso  ? H
   C253       1.0     0.706725     0.554646     0.592665    Uiso  ? C
   H151       1.0     0.695468     0.542489     0.606135    Uiso  ? H
   C254       1.0     0.734339     0.553420     0.591308    Uiso  ? C
   C255       1.0     0.747767     0.571526     0.574236    Uiso  ? C
   H152       1.0     0.769195     0.570708     0.572200    Uiso  ? H
   C256       1.0     0.748729     0.533356     0.607135    Uiso  ? C
   C257       1.0     0.787558     0.655939     0.541796    Uiso  ? C
   C258       1.0     0.802283     0.669816     0.563059    Uiso  ? C
   C259       1.0     0.796737     0.696872     0.567118    Uiso  ? C
   H153       1.0     0.781060     0.708172     0.556855    Uiso  ? H
   C260       1.0     0.809878     0.711141     0.587152    Uiso  ? C
   H154       1.0     0.806212     0.731242     0.591493    Uiso  ? H
   C261       1.0     0.830779     0.699408     0.600184    Uiso  ? C
   H155       1.0     0.842480     0.711026     0.613599    Uiso  ? H
   C262       1.0     0.837364     0.672947     0.594970    Uiso  ? C
   C263       1.0     0.822159     0.657904     0.577701    Uiso  ? C
   H156       1.0     0.827498     0.637591     0.572631    Uiso  ? H
   C264       1.0     0.859770     0.660750     0.609953    Uiso  ? C
   C265       1.0     0.867932     0.340819     0.405605    Uiso  ? C
   C266       1.0     0.849561     0.325379     0.422552    Uiso  ? C
   C267       1.0     0.843507     0.299932     0.415427    Uiso  ? C
   H157       1.0     0.853343     0.289806     0.398538    Uiso  ? H
   C268       1.0     0.823769     0.286791     0.429198    Uiso  ? C
   H158       1.0     0.819242     0.267138     0.422878    Uiso  ? H
   C269       1.0     0.809307     0.299241     0.449143    Uiso  ? C
   H159       1.0     0.792042     0.290134     0.458302    Uiso  ? H
   C270       1.0     0.816876     0.324255     0.457455    Uiso  ? C
   C271       1.0     0.836926     0.337765     0.444310    Uiso  ? C
   H160       1.0     0.840953     0.358378     0.448896    Uiso  ? H
   C272       1.0     0.800146     0.338678     0.476308    Uiso  ? C
   C273       1.0     0.142762     0.391132     0.353399    Uiso  ? C
   C274       1.0     0.166189     0.402750     0.340944    Uiso  ? C
   C275       1.0     0.179051     0.388361     0.320967    Uiso  ? C
   H161       1.0     0.172548     0.369010     0.314563    Uiso  ? H
   C276       1.0     0.201702     0.399278     0.309100    Uiso  ? C
   H162       1.0     0.213005     0.388329     0.294295    Uiso  ? H
   C277       1.0     0.211489     0.423920     0.317038    Uiso  ? C
   H163       1.0     0.230223     0.430636     0.308917    Uiso  ? H
   C278       1.0     0.198682     0.438019     0.337416    Uiso  ? C
   C279       1.0     0.175559     0.427426     0.349224    Uiso  ? C
   H164       1.0     0.164781     0.437705     0.362990    Uiso  ? H
   C280       1.0     0.210078     0.463625     0.346828    Uiso  ? C
   C281       1.0     0.259464     0.538594     0.393100    Uiso  ? C
   C282       1.0     0.272392     0.558373     0.410819    Uiso  ? C
   C283       1.0     0.300210     0.562002     0.409555    Uiso  ? C
   H165       1.0     0.312340     0.551928     0.394544    Uiso  ? H
   C284       1.0     0.312592     0.579735     0.426536    Uiso  ? C
   H166       1.0     0.333989     0.581562     0.426131    Uiso  ? H
   C285       1.0     0.297953     0.593919     0.444993    Uiso  ? C
   H167       1.0     0.308496     0.604981     0.458549    Uiso  ? H
   C286       1.0     0.270011     0.590314     0.447127    Uiso  ? C
   C287       1.0     0.257294     0.572930     0.429091    Uiso  ? C
   H168       1.0     0.236803     0.570001     0.430664    Uiso  ? H
   C288       1.0     0.254585     0.606783     0.466033    Uiso  ? C
   O109       1.0     0.860329     0.606376     0.371199    Uiso  ? O
   O110       1.0     0.860270     0.631948     0.335674    Uiso  ? O
   O111       1.0     0.865007     0.631502     0.397356    Uiso  ? O
   O112       1.0     0.879441     0.668726     0.378835    Uiso  ? O
   O113       1.0     0.128080     0.636791     0.399926    Uiso  ? O
   O114       1.0     0.115367     0.672973     0.378280    Uiso  ? O
   O115       1.0     0.119085     0.589621     0.356423    Uiso  ? O
   O116       1.0     0.127853     0.625314     0.333349    Uiso  ? O
   O117       1.0     0.761786     0.471423     0.412010    Uiso  ? O
   O118       1.0     0.725244     0.479869     0.390692    Uiso  ? O
   O119       1.0     0.763102     0.529437     0.404777    Uiso  ? O
   O120       1.0     0.724955     0.512597     0.390102    Uiso  ? O
   O121       1.0     0.785654     0.538057     0.382683    Uiso  ? O
   O122       1.0     0.764860     0.529662     0.345335    Uiso  ? O
   O123       1.0     0.800089     0.477447     0.358807    Uiso  ? O
   O124       1.0     0.762871     0.462564     0.343395    Uiso  ? O
   O125       1.0     0.771631     0.606765     0.535835    Uiso  ? O
   O126       1.0     0.732240     0.618973     0.522159    Uiso  ? O
   O127       1.0     0.792755     0.631741     0.537267    Uiso  ? O
   O128       1.0     0.770003     0.668542     0.528061    Uiso  ? O
   O129       1.0     0.808270     0.647967     0.483537    Uiso  ? O
   O130       1.0     0.770050     0.659202     0.466446    Uiso  ? O
   O131       1.0     0.763949     0.599111     0.471421    Uiso  ? O
   O132       1.0     0.727845     0.614215     0.490525    Uiso  ? O
   O133       1.0     0.869759     0.365637     0.408313    Uiso  ? O
   O134       1.0     0.880758     0.329375     0.386943    Uiso  ? O
   O135       1.0     0.872617     0.406307     0.358566    Uiso  ? O
   O136       1.0     0.861437     0.367630     0.343047    Uiso  ? O
   O137       1.0     0.136389     0.396195     0.377413    Uiso  ? O
   O138       1.0     0.130154     0.373634     0.340697    Uiso  ? O
   O139       1.0     0.131846     0.370377     0.398326    Uiso  ? O
   O140       1.0     0.116167     0.331417     0.385389    Uiso  ? O
   O141       1.0     0.195833     0.479912     0.359826    Uiso  ? O
   O142       1.0     0.235054     0.467364     0.344416    Uiso  ? O
   O143       1.0     0.189420     0.515147     0.354683    Uiso  ? O
   O144       1.0     0.224086     0.527841     0.332599    Uiso  ? O
   O145       1.0     0.234641     0.538738     0.392563    Uiso  ? O
   O146       1.0     0.272413     0.522380     0.379574    Uiso  ? O
   O147       1.0     0.231905     0.474986     0.405342    Uiso  ? O
   O148       1.0     0.259245     0.469469     0.371936    Uiso  ? O
   O149       1.0     0.805248     0.353527     0.526593    Uiso  ? O
   O150       1.0     0.767627     0.335269     0.536238    Uiso  ? O
   O151       1.0     0.767844     0.396935     0.539801    Uiso  ? O
   O152       1.0     0.731246     0.377300     0.526457    Uiso  ? O
   O153       1.0     0.763301     0.392639     0.474044    Uiso  ? O
   O154       1.0     0.727089     0.380198     0.493796    Uiso  ? O
   O155       1.0     0.810044     0.352644     0.494475    Uiso  ? O
   O156       1.0     0.774856     0.338836     0.473317    Uiso  ? O
   O157       1.0     0.106579     0.578149     0.414552    Uiso  ? O
   O158       1.0     0.820145     0.491633     0.415500    Uiso  ? O
   O159       1.0     0.820899     0.586547     0.491394    Uiso  ? O
   O160       1.0     0.887666     0.421362     0.416990    Uiso  ? O
   O161       1.0     0.180922     0.515342     0.417778    Uiso  ? O
   O162       1.0     0.812256     0.416679     0.496314    Uiso  ? O
   Zn25       1.0     0.101743     0.608351     0.388322    Uiso  ? Zn
   Zn26       1.0     0.896222     0.653448     0.344088    Uiso  ? Zn
   Zn27       1.0     0.787011     0.497155     0.391577    Uiso  ? Zn
   Zn28       1.0     0.741278     0.496798     0.354094    Uiso  ? Zn
   Zn29       1.0     0.791769     0.615138     0.498246    Uiso  ? Zn
   Zn30       1.0     0.743970     0.652575     0.499676    Uiso  ? Zn
   Zn31       1.0     0.893970     0.391553     0.389393    Uiso  ? Zn
   Zn32       1.0     0.895270     0.347477     0.350685    Uiso  ? Zn
   Zn33       1.0     0.210196     0.506723     0.389764    Uiso  ? Zn
   Zn34       1.0     0.254914     0.503545     0.346711    Uiso  ? Zn
   Zn35       1.0     0.788862     0.385392     0.505811    Uiso  ? Zn
   Zn36       1.0     0.745969     0.344992     0.503263    Uiso  ? Zn
   C289       1.0     0.135243     0.395754     0.661319    Uiso  ? C
   C290       1.0     0.157145     0.410694     0.674480    Uiso  ? C
   C291       1.0     0.166480     0.403048     0.699337    Uiso  ? C
   H169       1.0     0.157609     0.388158     0.711119    Uiso  ? H
   C292       1.0     0.188844     0.415368     0.710108    Uiso  ? C
   H170       1.0     0.196415     0.407765     0.728860    Uiso  ? H
   C293       1.0     0.202588     0.433902     0.695581    Uiso  ? C
   H171       1.0     0.219056     0.442980     0.704171    Uiso  ? H
   C294       1.0     0.193465     0.443340     0.670846    Uiso  ? C
   C295       1.0     0.170142     0.431805     0.661312    Uiso  ? C
   H172       1.0     0.161525     0.439117     0.642779    Uiso  ? H
   C296       1.0     0.207375     0.465511     0.657654    Uiso  ? C
   C297       1.0     0.146862     0.348878     0.618585    Uiso  ? C
   C298       1.0     0.172684     0.338777     0.608326    Uiso  ? C
   C299       1.0     0.187735     0.320927     0.623608    Uiso  ? C
   H173       1.0     0.179643     0.313986     0.642226    Uiso  ? H
   C300       1.0     0.212934     0.313155     0.615041    Uiso  ? C
   H174       1.0     0.224979     0.300464     0.627276    Uiso  ? H
   C301       1.0     0.223303     0.323406     0.591110    Uiso  ? C
   H175       1.0     0.242753     0.316639     0.584985    Uiso  ? H
   C302       1.0     0.208061     0.340890     0.575623    Uiso  ? C
   C303       1.0     0.182991     0.347916     0.584142    Uiso  ? C
   H176       1.0     0.171254     0.360879     0.572731    Uiso  ? H
   C304       1.0     0.216991     0.348773     0.548385    Uiso  ? C
   C305       1.0     0.862340     0.336922     0.610155    Uiso  ? C
   C306       1.0     0.839404     0.323830     0.598266    Uiso  ? C
   C307       1.0     0.827249     0.302799     0.610718    Uiso  ? C
   H177       1.0     0.835598     0.292883     0.628218    Uiso  ? H
   C308       1.0     0.803847     0.291996     0.600696    Uiso  ? C
   H178       1.0     0.793827     0.276127     0.611194    Uiso  ? H
   C309       1.0     0.792996     0.302173     0.577057    Uiso  ? C
   H179       1.0     0.776341     0.293579     0.567371    Uiso  ? H
   C310       1.0     0.804973     0.324077     0.564228    Uiso  ? C
   C311       1.0     0.827937     0.334562     0.575392    Uiso  ? C
   H180       1.0     0.836453     0.353077     0.566790    Uiso  ? H
   C312       1.0     0.792149     0.337433     0.541117    Uiso  ? C
   C313       1.0     0.869543     0.397417     0.665037    Uiso  ? C
   C314       1.0     0.851451     0.414552     0.680003    Uiso  ? C
   C315       1.0     0.849786     0.412407     0.707864    Uiso  ? C
   H181       1.0     0.861631     0.396763     0.717825    Uiso  ? H
   C316       1.0     0.831192     0.426906     0.721981    Uiso  ? C
   H182       1.0     0.831241     0.423397     0.742696    Uiso  ? H
   C317       1.0     0.814721     0.445471     0.709231    Uiso  ? C
   H183       1.0     0.803016     0.459665     0.720869    Uiso  ? H
   C318       1.0     0.816797     0.448454     0.681729    Uiso  ? C
   C319       1.0     0.834425     0.432056     0.667237    Uiso  ? C
   H184       1.0     0.834010     0.433043     0.646300    Uiso  ? H
   C320       1.0     0.800312     0.468140     0.667123    Uiso  ? C
   C321       1.0     0.254585     0.540482     0.603544    Uiso  ? C
   C322       1.0     0.268454     0.558715     0.586619    Uiso  ? C
   C323       1.0     0.296388     0.561330     0.588693    Uiso  ? C
   H185       1.0     0.307173     0.549892     0.602997    Uiso  ? H
   C324       1.0     0.308836     0.580351     0.573263    Uiso  ? C
   H186       1.0     0.330217     0.583928     0.574649    Uiso  ? H
   C325       1.0     0.295145     0.595412     0.554123    Uiso  ? C
   H187       1.0     0.306019     0.609001     0.541263    Uiso  ? H
   C326       1.0     0.268015     0.592328     0.551818    Uiso  ? C
   C327       1.0     0.255053     0.572723     0.566845    Uiso  ? C
   H188       1.0     0.233793     0.569266     0.563930    Uiso  ? H
   C328       1.0     0.253246     0.609823     0.532697    Uiso  ? C
   C329       1.0     0.261983     0.477147     0.597336    Uiso  ? C
   C330       1.0     0.277193     0.459927     0.578491    Uiso  ? C
   C331       1.0     0.304941     0.458598     0.578548    Uiso  ? C
   H189       1.0     0.315531     0.469072     0.593413    Uiso  ? H
   C332       1.0     0.317797     0.441671     0.561171    Uiso  ? C
   H190       1.0     0.338818     0.442662     0.559591    Uiso  ? H
   C333       1.0     0.302946     0.424994     0.544034    Uiso  ? C
   H191       1.0     0.312586     0.411704     0.530538    Uiso  ? H
   C334       1.0     0.275945     0.427230     0.542983    Uiso  ? C
   C335       1.0     0.262962     0.445566     0.559668    Uiso  ? C
   H192       1.0     0.240561     0.446259     0.558366    Uiso  ? H
   C336       1.0     0.259415     0.408543     0.526821    Uiso  ? C
   C337       1.0     0.212024     0.547597     0.650977    Uiso  ? C
   C338       1.0     0.201676     0.572340     0.662894    Uiso  ? C
   C339       1.0     0.213570     0.583490     0.685499    Uiso  ? C
   H193       1.0     0.232598     0.575899     0.693685    Uiso  ? H
   C340       1.0     0.202117     0.606007     0.697234    Uiso  ? C
   H194       1.0     0.212086     0.615276     0.713578    Uiso  ? H
   C341       1.0     0.179468     0.617249     0.687076    Uiso  ? C
   H195       1.0     0.172972     0.635205     0.695223    Uiso  ? H
   C342       1.0     0.167385     0.606299     0.664553    Uiso  ? C
   C343       1.0     0.178550     0.584015     0.652546    Uiso  ? C
   H196       1.0     0.169276     0.575935     0.635121    Uiso  ? H
   C344       1.0     0.142650     0.616963     0.654312    Uiso  ? C
   C345       1.0     0.254474     0.396331     0.467453    Uiso  ? C
   C346       1.0     0.266750     0.408289     0.444172    Uiso  ? C
   C347       1.0     0.290482     0.398010     0.433419    Uiso  ? C
   H197       1.0     0.302173     0.382868     0.442603    Uiso  ? H
   C348       1.0     0.300694     0.408571     0.410317    Uiso  ? C
   H198       1.0     0.319326     0.401915     0.401565    Uiso  ? H
   C349       1.0     0.288299     0.429936     0.398283    Uiso  ? C
   H199       1.0     0.296934     0.438821     0.380168    Uiso  ? H
   C350       1.0     0.263979     0.439937     0.408095    Uiso  ? C
   C351       1.0     0.253558     0.428767     0.431053    Uiso  ? C
   H200       1.0     0.235074     0.436419     0.438440    Uiso  ? H
   C352       1.0     0.250827     0.462185     0.394346    Uiso  ? C
   C353       1.0     0.207326     0.349249     0.464877    Uiso  ? C
   C354       1.0     0.191980     0.335154     0.444486    Uiso  ? C
   C355       1.0     0.197168     0.308693     0.439560    Uiso  ? C
   H201       1.0     0.213454     0.299364     0.449568    Uiso  ? H
   C356       1.0     0.182952     0.294635     0.421029    Uiso  ? C
   H202       1.0     0.188575     0.274234     0.415012    Uiso  ? H
   C357       1.0     0.161139     0.305423     0.408672    Uiso  ? C
   H203       1.0     0.149393     0.292298     0.396412    Uiso  ? H
   C358       1.0     0.154674     0.332124     0.413095    Uiso  ? C
   C359       1.0     0.170459     0.347098     0.431335    Uiso  ? C
   H204       1.0     0.165249     0.367920     0.435471    Uiso  ? H
   C360       1.0     0.133661     0.345156     0.397238    Uiso  ? C
   C361       1.0     0.127315     0.666405     0.597508    Uiso  ? C
   C362       1.0     0.146399     0.680849     0.580701    Uiso  ? C
   C363       1.0     0.153262     0.707479     0.586595    Uiso  ? C
   H205       1.0     0.140925     0.718149     0.600935    Uiso  ? H
   C364       1.0     0.173302     0.719899     0.572382    Uiso  ? C
   H206       1.0     0.178192     0.740756     0.575866    Uiso  ? H
   C365       1.0     0.187452     0.706450     0.553199    Uiso  ? C
   H207       1.0     0.202665     0.717036     0.543242    Uiso  ? H
   C366       1.0     0.181164     0.680579     0.545976    Uiso  ? C
   C367       1.0     0.160251     0.667914     0.559999    Uiso  ? C
   H208       1.0     0.154429     0.648115     0.553655    Uiso  ? H
   C368       1.0     0.198204     0.665933     0.527417    Uiso  ? C
   C369       1.0     0.855984     0.618207     0.655817    Uiso  ? C
   C370       1.0     0.832258     0.605939     0.667683    Uiso  ? C
   C371       1.0     0.821266     0.616202     0.690864    Uiso  ? C
   H209       1.0     0.830413     0.633819     0.699843    Uiso  ? H
   C372       1.0     0.798218     0.603775     0.702458    Uiso  ? C
   H210       1.0     0.790241     0.610745     0.720865    Uiso  ? H
   C373       1.0     0.787382     0.581536     0.690961    Uiso  ? C
   H211       1.0     0.770969     0.570752     0.701413    Uiso  ? H
   C374       1.0     0.797604     0.571483     0.667217    Uiso  ? C
   C375       1.0     0.820461     0.583377     0.656251    Uiso  ? C
   H212       1.0     0.829062     0.575261     0.638534    Uiso  ? H
   C376       1.0     0.786828     0.546244     0.656822    Uiso  ? C
   C377       1.0     0.741703     0.468887     0.608020    Uiso  ? C
   C378       1.0     0.726848     0.449676     0.591071    Uiso  ? C
   C379       1.0     0.699270     0.445858     0.593850    Uiso  ? C
   H213       1.0     0.687605     0.457561     0.607605    Uiso  ? H
   C380       1.0     0.685533     0.428552     0.577430    Uiso  ? C
   H214       1.0     0.664142     0.427979     0.578054    Uiso  ? H
   C381       1.0     0.699725     0.411854     0.559600    Uiso  ? C
   H215       1.0     0.688016     0.397970     0.547813    Uiso  ? H
   C382       1.0     0.727586     0.412320     0.558749    Uiso  ? C
   C383       1.0     0.740703     0.433373     0.572830    Uiso  ? C
   H216       1.0     0.762065     0.435327     0.570537    Uiso  ? H
   C384       1.0     0.743050     0.394929     0.540904    Uiso  ? C
   O163       1.0     0.132931     0.396754     0.635956    Uiso  ? O
   O164       1.0     0.120031     0.380265     0.675130    Uiso  ? O
   O165       1.0     0.137563     0.370897     0.609783    Uiso  ? O
   O166       1.0     0.134919     0.336159     0.636652    Uiso  ? O
   O167       1.0     0.876269     0.352737     0.596643    Uiso  ? O
   O168       1.0     0.866628     0.334014     0.634376    Uiso  ? O
   O169       1.0     0.871665     0.401210     0.640092    Uiso  ? O
   O170       1.0     0.882704     0.379655     0.676698    Uiso  ? O
   O171       1.0     0.229467     0.539515     0.603714    Uiso  ? O
   O172       1.0     0.268069     0.524087     0.617329    Uiso  ? O
   O173       1.0     0.237191     0.479436     0.593158    Uiso  ? O
   O174       1.0     0.272799     0.491534     0.615045    Uiso  ? O
   O175       1.0     0.194000     0.480900     0.642751    Uiso  ? O
   O176       1.0     0.232121     0.468099     0.660231    Uiso  ? O
   O177       1.0     0.206617     0.541877     0.626653    Uiso  ? O
   O178       1.0     0.230057     0.535556     0.663287    Uiso  ? O
   O179       1.0     0.229449     0.397494     0.471552    Uiso  ? O
   O180       1.0     0.268616     0.381015     0.482468    Uiso  ? O
   O181       1.0     0.203348     0.374089     0.467888    Uiso  ? O
   O182       1.0     0.224353     0.336600     0.478980    Uiso  ? O
   O183       1.0     0.200480     0.358953     0.532942    Uiso  ? O
   O184       1.0     0.241111     0.350114     0.542936    Uiso  ? O
   O185       1.0     0.235003     0.413681     0.523510    Uiso  ? O
   O186       1.0     0.268763     0.386400     0.519139    Uiso  ? O
   O187       1.0     0.126804     0.641664     0.595284    Uiso  ? O
   O188       1.0     0.114157     0.677914     0.615537    Uiso  ? O
   O189       1.0     0.126355     0.602027     0.643349    Uiso  ? O
   O190       1.0     0.138105     0.641263     0.655917    Uiso  ? O
   O191       1.0     0.861789     0.612155     0.632239    Uiso  ? O
   O192       1.0     0.870132     0.635393     0.667741    Uiso  ? O
   O193       1.0     0.862919     0.635841     0.608689    Uiso  ? O
   O194       1.0     0.877875     0.675793     0.620204    Uiso  ? O
   O195       1.0     0.793865     0.537871     0.633979    Uiso  ? O
   O196       1.0     0.769638     0.532904     0.669432    Uiso  ? O
   O197       1.0     0.811880     0.483527     0.651159    Uiso  ? O
   O198       1.0     0.775213     0.468711     0.669187    Uiso  ? O
   O199       1.0     0.767171     0.470508     0.605525    Uiso  ? O
   O200       1.0     0.729540     0.485494     0.623390    Uiso  ? O
   O201       1.0     0.774293     0.534675     0.609122    Uiso  ? O
   O202       1.0     0.736153     0.517266     0.621952    Uiso  ? O
   O203       1.0     0.188993     0.648704     0.478962    Uiso  ? O
   O204       1.0     0.226989     0.666198     0.465022    Uiso  ? O
   O205       1.0     0.229387     0.605483     0.465845    Uiso  ? O
   O206       1.0     0.266179     0.622495     0.481901    Uiso  ? O
   O207       1.0     0.228098     0.610093     0.533828    Uiso  ? O
   O208       1.0     0.265710     0.622185     0.514077    Uiso  ? O
   O209       1.0     0.187115     0.650460     0.510478    Uiso  ? O
   O210       1.0     0.223854     0.667290     0.528209    Uiso  ? O
   O211       1.0     0.887737     0.408719     0.579727    Uiso  ? O
   O212       1.0     0.178259     0.492646     0.585353    Uiso  ? O
   O213       1.0     0.172843     0.411350     0.512635    Uiso  ? O
   O214       1.0     0.104899     0.584343     0.587668    Uiso  ? O
   O215       1.0     0.822396     0.492126     0.591229    Uiso  ? O
   O216       1.0     0.180458     0.583932     0.499646    Uiso  ? O
   Zn37       1.0     0.896386     0.383565     0.611684    Uiso  ? Zn
   Zn38       1.0     0.101307     0.345589     0.658035    Uiso  ? Zn
   Zn39       1.0     0.209007     0.503104     0.610738    Uiso  ? Zn
   Zn40       1.0     0.254254     0.503033     0.652259    Uiso  ? Zn
   Zn41       1.0     0.206879     0.389420     0.506107    Uiso  ? Zn
   Zn42       1.0     0.252065     0.349766     0.504462    Uiso  ? Zn
   Zn43       1.0     0.102100     0.614709     0.613686    Uiso  ? Zn
   Zn44       1.0     0.102600     0.660260     0.652832    Uiso  ? Zn
   Zn45       1.0     0.793049     0.499154     0.619770    Uiso  ? Zn
   Zn46       1.0     0.748835     0.498631     0.658748    Uiso  ? Zn
   Zn47       1.0     0.205771     0.615474     0.498100    Uiso  ? Zn
   Zn48       1.0     0.249698     0.657922     0.497859    Uiso  ? Zn
   H217       1.0     0.179088     0.475940     0.576259    Uiso  ? H
   H218       1.0     0.161578     0.500416     0.590431    Uiso  ? H
   H219       1.0     0.834490     0.504205     0.415457    Uiso  ? H
   H220       1.0     0.822110     0.475545     0.425378    Uiso  ? H
   H221       1.0     0.824861     0.414990     0.481743    Uiso  ? H
   H222       1.0     0.806980     0.434161     0.502558    Uiso  ? H
   H223       1.0     0.879919     0.420501     0.434426    Uiso  ? H
   H224       1.0     0.895319     0.437444     0.409956    Uiso  ? H
   H225       1.0     0.174823     0.574297     0.484143    Uiso  ? H
   H226       1.0     0.172176     0.580936     0.516568    Uiso  ? H
   H227       1.0     0.120899     0.565699     0.411214    Uiso  ? H
   H228       1.0     0.888637     0.572294     0.424750    Uiso  ? H
   H229       1.0     0.163827     0.522038     0.412711    Uiso  ? H
   H230       1.0     0.184100     0.513115     0.436417    Uiso  ? H
   H231       1.0     0.102734     0.586502     0.569050    Uiso  ? H
   H232       1.0     0.109871     0.567546     0.594897    Uiso  ? H
   H233       1.0     0.824336     0.577487     0.474971    Uiso  ? H
   H234       1.0     0.830858     0.581530     0.507142    Uiso  ? H
   H235       1.0     0.833311     0.506160     0.584614    Uiso  ? H
   H236       1.0     0.827070     0.474227     0.586591    Uiso  ? H
   H237       1.0     0.166492     0.423096     0.498864    Uiso  ? H
   H238       1.0     0.165023     0.411326     0.529951    Uiso  ? H
   H239       1.0     0.889560     0.400803     0.562597    Uiso  ? H
   H240       1.0     0.883447     0.427377     0.582007    Uiso  ? H
   C385       1.0     0.656233     0.134355     0.603380    Uiso  ? C
   C386       1.0     0.669254     0.156489     0.589271    Uiso  ? C
   C387       1.0     0.694222     0.165734     0.596066    Uiso  ? C
   H241       1.0     0.705992     0.155193     0.609920    Uiso  ? H
   C388       1.0     0.706146     0.186516     0.582947    Uiso  ? C
   H242       1.0     0.725771     0.193308     0.589613    Uiso  ? H
   C389       1.0     0.693722     0.199512     0.562648    Uiso  ? C
   H243       1.0     0.702107     0.217012     0.551854    Uiso  ? H
   C390       1.0     0.668300     0.190570     0.554181    Uiso  ? C
   C391       1.0     0.656214     0.169749     0.568376    Uiso  ? C
   H244       1.0     0.637084     0.163374     0.561977    Uiso  ? H
   C392       1.0     0.653982     0.205062     0.533029    Uiso  ? C
   C393       1.0     0.611389     0.132126     0.649388    Uiso  ? C
   C394       1.0     0.596817     0.152452     0.664326    Uiso  ? C
   C395       1.0     0.599645     0.154316     0.691798    Uiso  ? C
   H245       1.0     0.613532     0.141567     0.701016    Uiso  ? H
   C396       1.0     0.584128     0.172033     0.706199    Uiso  ? C
   H246       1.0     0.587073     0.173470     0.727189    Uiso  ? H
   C397       1.0     0.565449     0.187817     0.693657    Uiso  ? C
   H247       1.0     0.555186     0.202517     0.705113    Uiso  ? H
   C398       1.0     0.563282     0.187233     0.665979    Uiso  ? C
   C399       1.0     0.578831     0.169015     0.651072    Uiso  ? C
   H248       1.0     0.577383     0.168678     0.629460    Uiso  ? H
   C400       1.0     0.543402     0.204161     0.653547    Uiso  ? C
   C401       1.0     0.616171     0.852555     0.649856    Uiso  ? C
   C402       1.0     0.606124     0.827502     0.660006    Uiso  ? C
   C403       1.0     0.623238     0.810734     0.674642    Uiso  ? C
   H249       1.0     0.642010     0.817985     0.681668    Uiso  ? H
   C404       1.0     0.615225     0.785683     0.681922    Uiso  ? C
   H250       1.0     0.628771     0.773030     0.692891    Uiso  ? H
   C405       1.0     0.590152     0.776902     0.674363    Uiso  ? C
   H251       1.0     0.583840     0.756917     0.680704    Uiso  ? H
   C406       1.0     0.572510     0.792754     0.660456    Uiso  ? C
   C407       1.0     0.580537     0.818841     0.653836    Uiso  ? C
   H252       1.0     0.566565     0.832068     0.643523    Uiso  ? H
   C408       1.0     0.546169     0.782284     0.654715    Uiso  ? C
   C409       1.0     0.660830     0.856390     0.602070    Uiso  ? C
   C410       1.0     0.672517     0.832372     0.589506    Uiso  ? C
   C411       1.0     0.694702     0.818969     0.599323    Uiso  ? C
   H253       1.0     0.705253     0.827784     0.616025    Uiso  ? H
   C412       1.0     0.704390     0.796454     0.587022    Uiso  ? C
   H254       1.0     0.721007     0.786930     0.594999    Uiso  ? H
   C413       1.0     0.691036     0.786227     0.564690    Uiso  ? C
   H255       1.0     0.699276     0.768746     0.556527    Uiso  ? H
   C414       1.0     0.667784     0.798145     0.555713    Uiso  ? C
   C415       1.0     0.657912     0.820391     0.568745    Uiso  ? C
   H256       1.0     0.640262     0.830052     0.561267    Uiso  ? H
   C416       1.0     0.653089     0.786404     0.533268    Uiso  ? C
   C417       1.0     0.608405     0.256127     0.456139    Uiso  ? C
   C418       1.0     0.595327     0.269644     0.434217    Uiso  ? C
   C419       1.0     0.606171     0.292362     0.422026    Uiso  ? C
   H257       1.0     0.624903     0.299691     0.428511    Uiso  ? H
   C420       1.0     0.592908     0.305273     0.401810    Uiso  ? C
   H258       1.0     0.602543     0.321988     0.392618    Uiso  ? H
   C421       1.0     0.569472     0.295526     0.391267    Uiso  ? C
   H259       1.0     0.559591     0.305465     0.375300    Uiso  ? H
   C422       1.0     0.558556     0.272782     0.402999    Uiso  ? C
   C423       1.0     0.571272     0.260074     0.424201    Uiso  ? C
   H260       1.0     0.563590     0.241917     0.432030    Uiso  ? H
   C424       1.0     0.534591     0.260099     0.391860    Uiso  ? C
   C425       1.0     0.610325     0.252812     0.536576    Uiso  ? C
   C426       1.0     0.599651     0.265702     0.560663    Uiso  ? C
   C427       1.0     0.606293     0.292027     0.567387    Uiso  ? C
   H261       1.0     0.621139     0.303024     0.555988    Uiso  ? H
   C428       1.0     0.595890     0.303741     0.590356    Uiso  ? C
   H262       1.0     0.604182     0.322584     0.596546    Uiso  ? H
   C429       1.0     0.578542     0.290008     0.606736    Uiso  ? C
   H263       1.0     0.571045     0.299729     0.623359    Uiso  ? H
   C430       1.0     0.569575     0.264773     0.598466    Uiso  ? C
   C431       1.0     0.581637     0.251802     0.576854    Uiso  ? C
   H264       1.0     0.573936     0.233238     0.569944    Uiso  ? H
   C432       1.0     0.547372     0.251637     0.612683    Uiso  ? C
   C433       1.0     0.650037     0.206212     0.454642    Uiso  ? C
   C434       1.0     0.661752     0.193170     0.431789    Uiso  ? C
   C435       1.0     0.686578     0.201798     0.422012    Uiso  ? C
   H265       1.0     0.697408     0.219231     0.429145    Uiso  ? H
   C436       1.0     0.699158     0.186897     0.402527    Uiso  ? C
   H266       1.0     0.718378     0.193574     0.395411    Uiso  ? H
   C437       1.0     0.687119     0.164643     0.391287    Uiso  ? C
   H267       1.0     0.695838     0.154437     0.374867    Uiso  ? H
   C438       1.0     0.660877     0.157431     0.398944    Uiso  ? C
   C439       1.0     0.649761     0.170652     0.421039    Uiso  ? C
   H268       1.0     0.630454     0.164666     0.427786    Uiso  ? H
   C440       1.0     0.647292     0.134835     0.385152    Uiso  ? C
   C441       1.0     0.462227     0.253713     0.614012    Uiso  ? C
   C442       1.0     0.437113     0.265150     0.604478    Uiso  ? C
   C443       1.0     0.422056     0.280590     0.621852    Uiso  ? C
   H269       1.0     0.429556     0.286340     0.641556    Uiso  ? H
   C444       1.0     0.397690     0.290893     0.614486    Uiso  ? C
   H270       1.0     0.386165     0.302813     0.626958    Uiso  ? H
   C445       1.0     0.386414     0.283822     0.590668    Uiso  ? C
   H271       1.0     0.366111     0.289611     0.587002    Uiso  ? H
   C446       1.0     0.401174     0.268540     0.572587    Uiso  ? C
   C447       1.0     0.427203     0.259843     0.579174    Uiso  ? C
   H272       1.0     0.438308     0.246943     0.566079    Uiso  ? H
   C448       1.0     0.388419     0.259521     0.548271    Uiso  ? C
   C449       1.0     0.482532     0.194568     0.664541    Uiso  ? C
   C450       1.0     0.467777     0.175414     0.680082    Uiso  ? C
   C451       1.0     0.471658     0.172606     0.707807    Uiso  ? C
   H273       1.0     0.486142     0.185025     0.718384    Uiso  ? H
   C452       1.0     0.455322     0.155885     0.722751    Uiso  ? C
   H274       1.0     0.456228     0.154245     0.743864    Uiso  ? H
   C453       1.0     0.435953     0.140258     0.710347    Uiso  ? C
   H275       1.0     0.423038     0.127999     0.721858    Uiso  ? H
   C454       1.0     0.432538     0.141444     0.682689    Uiso  ? C
   C455       1.0     0.447994     0.159798     0.668140    Uiso  ? C
   H276       1.0     0.445722     0.161789     0.646458    Uiso  ? H
   C456       1.0     0.412283     0.125730     0.668786    Uiso  ? C
   C457       1.0     0.597820     0.138679     0.341100    Uiso  ? C
   C458       1.0     0.583559     0.160389     0.328954    Uiso  ? C
   C459       1.0     0.586583     0.164522     0.301451    Uiso  ? C
   H277       1.0     0.599870     0.152500     0.289397    Uiso  ? H
   C460       1.0     0.572402     0.184704     0.288716    Uiso  ? C
   H278       1.0     0.575738     0.189711     0.268289    Uiso  ? H
   C461       1.0     0.554850     0.200080     0.303035    Uiso  ? C
   H279       1.0     0.541824     0.214389     0.293050    Uiso  ? H
   C462       1.0     0.551648     0.196653     0.330552    Uiso  ? C
   C463       1.0     0.565814     0.176233     0.343144    Uiso  ? C
   H280       1.0     0.564440     0.175080     0.364245    Uiso  ? H
   C464       1.0     0.531243     0.212139     0.344947    Uiso  ? C
   C465       1.0     0.647096     0.855920     0.379037    Uiso  ? C
   C466       1.0     0.658398     0.830075     0.389606    Uiso  ? C
   C467       1.0     0.676191     0.815572     0.373672    Uiso  ? C
   H281       1.0     0.684214     0.823298     0.355210    Uiso  ? H
   C468       1.0     0.684368     0.790734     0.381332    Uiso  ? C
   H282       1.0     0.697048     0.779691     0.368489    Uiso  ? H
   C469       1.0     0.675051     0.780117     0.405395    Uiso  ? C
   H283       1.0     0.682478     0.760719     0.410406    Uiso  ? H
   C470       1.0     0.659295     0.794917     0.422561    Uiso  ? C
   C471       1.0     0.650012     0.819769     0.413800    Uiso  ? C
   H284       1.0     0.637009     0.830401     0.426107    Uiso  ? H
   C472       1.0     0.651021     0.783114     0.448142    Uiso  ? C
   C473       1.0     0.605096     0.741920     0.531739    Uiso  ? C
   C474       1.0     0.592781     0.728425     0.554234    Uiso  ? C
   C475       1.0     0.598946     0.701790     0.560098    Uiso  ? C
   H285       1.0     0.615199     0.692450     0.549349    Uiso  ? H
   C476       1.0     0.587200     0.688825     0.581234    Uiso  ? C
   H286       1.0     0.591150     0.668110     0.584863    Uiso  ? H
   C477       1.0     0.567092     0.700599     0.595428    Uiso  ? C
   H287       1.0     0.557746     0.689876     0.610911    Uiso  ? H
   C478       1.0     0.559934     0.726740     0.589951    Uiso  ? C
   C479       1.0     0.572953     0.740677     0.569437    Uiso  ? C
   H288       1.0     0.568123     0.761284     0.566650    Uiso  ? H
   C480       1.0     0.539055     0.739901     0.605065    Uiso  ? C
   O217       1.0     0.630689     0.131793     0.601816    Uiso  ? O
   O218       1.0     0.670336     0.117929     0.616149    Uiso  ? O
   O219       1.0     0.609497     0.130321     0.624040    Uiso  ? O
   O220       1.0     0.626262     0.115471     0.661888    Uiso  ? O
   O221       1.0     0.601468     0.868842     0.637912    Uiso  ? O
   O222       1.0     0.641250     0.856070     0.649601    Uiso  ? O
   O223       1.0     0.646362     0.872160     0.589115    Uiso  ? O
   O224       1.0     0.663520     0.858729     0.627266    Uiso  ? O
   O225       1.0     0.594758     0.243224     0.473031    Uiso  ? O
   O226       1.0     0.633721     0.255724     0.457577    Uiso  ? O
   O227       1.0     0.605746     0.227788     0.531401    Uiso  ? O
   O228       1.0     0.623821     0.266958     0.520992    Uiso  ? O
   O229       1.0     0.628664     0.203040     0.530394    Uiso  ? O
   O230       1.0     0.666735     0.219946     0.517820    Uiso  ? O
   O231       1.0     0.636604     0.193257     0.470601    Uiso  ? O
   O232       1.0     0.655268     0.230645     0.458764    Uiso  ? O
   O233       1.0     0.477827     0.242602     0.598002    Uiso  ? O
   O234       1.0     0.468052     0.254779     0.638554    Uiso  ? O
   O235       1.0     0.481734     0.192783     0.639287    Uiso  ? O
   O236       1.0     0.496182     0.213768     0.675438    Uiso  ? O
   O237       1.0     0.540157     0.204042     0.627965    Uiso  ? O
   O238       1.0     0.527233     0.216854     0.668620    Uiso  ? O
   O239       1.0     0.541279     0.227818     0.607625    Uiso  ? O
   O240       1.0     0.532821     0.264498     0.628392    Uiso  ? O
   O241       1.0     0.597786     0.135637     0.366404    Uiso  ? O
   O242       1.0     0.612189     0.123135     0.326229    Uiso  ? O
   O243       1.0     0.621974     0.133460     0.385642    Uiso  ? O
   O244       1.0     0.660300     0.119068     0.370113    Uiso  ? O
   O245       1.0     0.635265     0.872364     0.393513    Uiso  ? O
   O246       1.0     0.647590     0.860078     0.354308    Uiso  ? O
   O247       1.0     0.585349     0.878163     0.348513    Uiso  ? O
   O248       1.0     0.623238     0.863333     0.333302    Uiso  ? O
   O249       1.0     0.641181     0.797667     0.465760    Uiso  ? O
   O250       1.0     0.652955     0.758491     0.452552    Uiso  ? O
   O251       1.0     0.628559     0.791648     0.530392    Uiso  ? O
   O252       1.0     0.664347     0.768964     0.519163    Uiso  ? O
   O253       1.0     0.604737     0.767160     0.529837    Uiso  ? O
   O254       1.0     0.618206     0.728121     0.514952    Uiso  ? O
   O255       1.0     0.590113     0.761116     0.470953    Uiso  ? O
   O256       1.0     0.611605     0.724317     0.481684    Uiso  ? O
   O257       1.0     0.469247     0.202427     0.359761    Uiso  ? O
   O258       1.0     0.454749     0.242439     0.346579    Uiso  ? O
   O259       1.0     0.470631     0.244639     0.406865    Uiso  ? O
   O260       1.0     0.458490     0.265451     0.371055    Uiso  ? O
   O261       1.0     0.531697     0.234569     0.392632    Uiso  ? O
   O262       1.0     0.518318     0.274044     0.378606    Uiso  ? O
   O263       1.0     0.531399     0.212804     0.370421    Uiso  ? O
   O264       1.0     0.515572     0.228148     0.333007    Uiso  ? O
   O265       1.0     0.586240     0.888744     0.577268    Uiso  ? O
   O266       1.0     0.576069     0.187060     0.489794    Uiso  ? O
   O267       1.0     0.497250     0.187451     0.577462    Uiso  ? O
   O268       1.0     0.575722     0.889235     0.410418    Uiso  ? O
   O269       1.0     0.588807     0.820432     0.488498    Uiso  ? O
   O270       1.0     0.492026     0.186157     0.416774    Uiso  ? O
   Zn49       1.0     0.615263     0.893383     0.606896    Uiso  ? Zn
   Zn50       1.0     0.658855     0.894132     0.647252    Uiso  ? Zn
   Zn51       1.0     0.608832     0.210559     0.493525    Uiso  ? Zn
   Zn52       1.0     0.653109     0.251732     0.494610    Uiso  ? Zn
   Zn53       1.0     0.502222     0.212892     0.610151    Uiso  ? Zn
   Zn54       1.0     0.504444     0.250716     0.655455    Uiso  ? Zn
   Zn55       1.0     0.604547     0.896042     0.380133    Uiso  ? Zn
   Zn56       1.0     0.644914     0.898568     0.337934    Uiso  ? Zn
   Zn57       1.0     0.611494     0.787663     0.492909    Uiso  ? Zn
   Zn58       1.0     0.650037     0.742593     0.491119    Uiso  ? Zn
   Zn59       1.0     0.494039     0.216516     0.388887    Uiso  ? Zn
   Zn60       1.0     0.492913     0.260772     0.348112    Uiso  ? Zn
   C481       1.0     0.335301     0.876233     0.408038    Uiso  ? C
   C482       1.0     0.320655     0.857354     0.425220    Uiso  ? C
   C483       1.0     0.293492     0.854206     0.422208    Uiso  ? C
   H289       1.0     0.282274     0.866430     0.409354    Uiso  ? H
   C484       1.0     0.280428     0.832961     0.434604    Uiso  ? C
   H290       1.0     0.259932     0.829202     0.431199    Uiso  ? H
   C485       1.0     0.294223     0.817081     0.453024    Uiso  ? C
   H291       1.0     0.283633     0.799632     0.461296    Uiso  ? H
   C486       1.0     0.320872     0.821276     0.456979    Uiso  ? C
   C487       1.0     0.334242     0.841049     0.442669    Uiso  ? C
   H292       1.0     0.355248     0.843613     0.445983    Uiso  ? H
   C488       1.0     0.336245     0.804738     0.475494    Uiso  ? C
   C489       1.0     0.385322     0.861494     0.348212    Uiso  ? C
   C490       1.0     0.396177     0.837267     0.336308    Uiso  ? C
   C491       1.0     0.383524     0.824952     0.314727    Uiso  ? C
   H293       1.0     0.368086     0.835236     0.305119    Uiso  ? H
   C492       1.0     0.391860     0.801074     0.305170    Uiso  ? C
   H294       1.0     0.381695     0.791915     0.288550    Uiso  ? H
   C493       1.0     0.413733     0.788338     0.316313    Uiso  ? C
   H295       1.0     0.419715     0.769165     0.308396    Uiso  ? H
   C494       1.0     0.427464     0.800349     0.337874    Uiso  ? C
   C495       1.0     0.417851     0.825027     0.348524    Uiso  ? C
   H296       1.0     0.427296     0.834109     0.365619    Uiso  ? H
   C496       1.0     0.449560     0.787311     0.350419    Uiso  ? C
   C497       1.0     0.381239     0.147477     0.353555    Uiso  ? C
   C498       1.0     0.393124     0.171117     0.339923    Uiso  ? C
   C499       1.0     0.380325     0.182596     0.317874    Uiso  ? C
   H297       1.0     0.361993     0.174277     0.310704    Uiso  ? H
   C500       1.0     0.390224     0.205743     0.306710    Uiso  ? C
   H298       1.0     0.379515     0.215575     0.290746    Uiso  ? H
   C501       1.0     0.413476     0.216711     0.316292    Uiso  ? C
   H299       1.0     0.421282     0.233575     0.306176    Uiso  ? H
   C502       1.0     0.427162     0.205259     0.337661    Uiso  ? C
   C503       1.0     0.416903     0.181685     0.348809    Uiso  ? C
   H300       1.0     0.427334     0.173099     0.365912    Uiso  ? H
   C504       1.0     0.451709     0.217262     0.347778    Uiso  ? C
   C505       1.0     0.338923     0.137948     0.399948    Uiso  ? C
   C506       1.0     0.325915     0.159517     0.415056    Uiso  ? C
   C507       1.0     0.299822     0.166107     0.409186    Uiso  ? C
   H301       1.0     0.289321     0.155936     0.393056    Uiso  ? H
   C508       1.0     0.287114     0.186456     0.423456    Uiso  ? C
   H302       1.0     0.266462     0.191263     0.418947    Uiso  ? H
   C509       1.0     0.301080     0.200377     0.443194    Uiso  ? C
   H303       1.0     0.292192     0.217021     0.453273    Uiso  ? H
   C510       1.0     0.327844     0.194723     0.448274    Uiso  ? C
   C511       1.0     0.339883     0.174310     0.433826    Uiso  ? C
   H304       1.0     0.361102     0.169299     0.436972    Uiso  ? H
   C512       1.0     0.342275     0.210592     0.469063    Uiso  ? C
   C513       1.0     0.395502     0.749627     0.537718    Uiso  ? C
   C514       1.0     0.411345     0.734742     0.557207    Uiso  ? C
   C515       1.0     0.406754     0.707427     0.560608    Uiso  ? C
   H305       1.0     0.392221     0.696548     0.548370    Uiso  ? H
   C516       1.0     0.420577     0.692104     0.578987    Uiso  ? C
   H306       1.0     0.418597     0.670772     0.580610    Uiso  ? H
   C517       1.0     0.439913     0.704380     0.594353    Uiso  ? C
   H307       1.0     0.451976     0.691729     0.608055    Uiso  ? H
   C518       1.0     0.443818     0.731443     0.592165    Uiso  ? C
   C519       1.0     0.430440     0.746508     0.572676    Uiso  ? C
   H308       1.0     0.434306     0.767619     0.571586    Uiso  ? H
   C520       1.0     0.464259     0.743502     0.609864    Uiso  ? C
   C521       1.0     0.394261     0.744426     0.472541    Uiso  ? C
   C522       1.0     0.409196     0.729356     0.452738    Uiso  ? C
   C523       1.0     0.408036     0.701443     0.452094    Uiso  ? C
   H309       1.0     0.395417     0.690757     0.466941    Uiso  ? H
   C524       1.0     0.421353     0.687294     0.432639    Uiso  ? C
   H310       1.0     0.419897     0.665749     0.432953    Uiso  ? H
   C525       1.0     0.436702     0.700888     0.413999    Uiso  ? C
   H311       1.0     0.445527     0.689428     0.398403    Uiso  ? H
   C526       1.0     0.439514     0.728036     0.414991    Uiso  ? C
   C527       1.0     0.424566     0.742386     0.434049    Uiso  ? C
   H312       1.0     0.428171     0.763593     0.434825    Uiso  ? H
   C528       1.0     0.458800     0.741503     0.397977    Uiso  ? C
   C529       1.0     0.350020     0.786132     0.554518    Uiso  ? C
   C530       1.0     0.341064     0.796993     0.579556    Uiso  ? C
   C531       1.0     0.320769     0.784315     0.593044    Uiso  ? C
   H313       1.0     0.312035     0.767318     0.584298    Uiso  ? H
   C532       1.0     0.313411     0.793509     0.618261    Uiso  ? C
   H314       1.0     0.298962     0.781852     0.628945    Uiso  ? H
   C533       1.0     0.323845     0.816891     0.628435    Uiso  ? C
   H315       1.0     0.316102     0.823494     0.647227    Uiso  ? H
   C534       1.0     0.342785     0.830863     0.614372    Uiso  ? C
   C535       1.0     0.351404     0.820148     0.590518    Uiso  ? C
   H316       1.0     0.368537     0.830091     0.579895    Uiso  ? H
   C536       1.0     0.354673     0.855786     0.624400    Uiso  ? C
   C537       1.0     0.521344     0.736435     0.401998    Uiso  ? C
   C538       1.0     0.537271     0.720578     0.420914    Uiso  ? C
   C539       1.0     0.538806     0.692321     0.420041    Uiso  ? C
   H317       1.0     0.526712     0.680676     0.406379    Uiso  ? H
   C540       1.0     0.555634     0.679356     0.437089    Uiso  ? C
   H318       1.0     0.556338     0.658202     0.437727    Uiso  ? H
   C541       1.0     0.572251     0.693637     0.453890    Uiso  ? C
   H319       1.0     0.586105     0.682501     0.465336    Uiso  ? H
   C542       1.0     0.572866     0.721378     0.453621    Uiso  ? C
   C543       1.0     0.555364     0.734343     0.437602    Uiso  ? C
   H320       1.0     0.555395     0.755212     0.437130    Uiso  ? H
   C544       1.0     0.593240     0.736186     0.468923    Uiso  ? C
   C545       1.0     0.530810     0.789693     0.342172    Uiso  ? C
   C546       1.0     0.552328     0.802429     0.328180    Uiso  ? C
   C547       1.0     0.563796     0.790183     0.306087    Uiso  ? C
   H321       1.0     0.555502     0.771067     0.298740    Uiso  ? H
   C548       1.0     0.584887     0.801678     0.292529    Uiso  ? C
   H322       1.0     0.594077     0.791129     0.277580    Uiso  ? H
   C549       1.0     0.595874     0.825234     0.302476    Uiso  ? C
   H323       1.0     0.612576     0.834367     0.292160    Uiso  ? H
   C550       1.0     0.584782     0.838254     0.323746    Uiso  ? C
   C551       1.0     0.562522     0.826956     0.336715    Uiso  ? C
   H324       1.0     0.555433     0.835574     0.354841    Uiso  ? H
   C552       1.0     0.598075     0.861125     0.334998    Uiso  ? C
   C553       1.0     0.403938     0.864564     0.662913    Uiso  ? C
   C554       1.0     0.419844     0.844154     0.676572    Uiso  ? C
   C555       1.0     0.421355     0.843781     0.704268    Uiso  ? C
   H325       1.0     0.410116     0.857159     0.715704    Uiso  ? H
   C556       1.0     0.436881     0.825185     0.717013    Uiso  ? C
   H326       1.0     0.437970     0.824837     0.737743    Uiso  ? H
   C557       1.0     0.451095     0.806452     0.702936    Uiso  ? C
   H327       1.0     0.462215     0.792527     0.714548    Uiso  ? H
   C558       1.0     0.450421     0.806431     0.675466    Uiso  ? C
   C559       1.0     0.434326     0.825246     0.662214    Uiso  ? C
   H328       1.0     0.433439     0.825199     0.640503    Uiso  ? H
   C560       1.0     0.467025     0.788216     0.660334    Uiso  ? C
   C561       1.0     0.349453     0.141250     0.618557    Uiso  ? C
   C562       1.0     0.335787     0.164984     0.607228    Uiso  ? C
   C563       1.0     0.316989     0.178567     0.622681    Uiso  ? C
   H329       1.0     0.312317     0.171807     0.642127    Uiso  ? H
   C564       1.0     0.306131     0.202348     0.613892    Uiso  ? C
   H330       1.0     0.292493     0.212897     0.625551    Uiso  ? H
   C565       1.0     0.313971     0.213023     0.589627    Uiso  ? C
   H331       1.0     0.307191     0.232248     0.584233    Uiso  ? H
   C566       1.0     0.332065     0.199854     0.573709    Uiso  ? C
   C567       1.0     0.342806     0.175203     0.582633    Uiso  ? C
   H332       1.0     0.358855     0.165754     0.572044    Uiso  ? H
   C568       1.0     0.343162     0.212761     0.549257    Uiso  ? C
   C569       1.0     0.388800     0.257896     0.467175    Uiso  ? C
   C570       1.0     0.400424     0.271132     0.443885    Uiso  ? C
   C571       1.0     0.390943     0.295608     0.435536    Uiso  ? C
   H333       1.0     0.374897     0.305674     0.445886    Uiso  ? H
   C572       1.0     0.403199     0.309530     0.414665    Uiso  ? C
   H334       1.0     0.394753     0.327864     0.408662    Uiso  ? H
   C573       1.0     0.424310     0.298613     0.401271    Uiso  ? C
   H335       1.0     0.432694     0.308774     0.385014    Uiso  ? H
   C574       1.0     0.433591     0.273259     0.408880    Uiso  ? C
   C575       1.0     0.421866     0.260115     0.430691    Uiso  ? C
   H336       1.0     0.429332     0.241159     0.437936    Uiso  ? H
   C576       1.0     0.456058     0.261609     0.395446    Uiso  ? C
   O271       1.0     0.360334     0.878261     0.410558    Uiso  ? O
   O272       1.0     0.323511     0.888364     0.389025    Uiso  ? O
   O273       1.0     0.400236     0.876865     0.360431    Uiso  ? O
   O274       1.0     0.360723     0.865476     0.346026    Uiso  ? O
   O275       1.0     0.388085     0.140803     0.376825    Uiso  ? O
   O276       1.0     0.365163     0.132159     0.341649    Uiso  ? O
   O277       1.0     0.364466     0.135681     0.400234    Uiso  ? O
   O278       1.0     0.324975     0.121990     0.385565    Uiso  ? O
   O279       1.0     0.396529     0.775073     0.537609    Uiso  ? O
   O280       1.0     0.379430     0.736808     0.522799    Uiso  ? O
   O281       1.0     0.396691     0.769424     0.473631    Uiso  ? O
   O282       1.0     0.378766     0.732883     0.489024    Uiso  ? O
   O283       1.0     0.353770     0.815670     0.489695    Uiso  ? O
   O284       1.0     0.332672     0.780123     0.477131    Uiso  ? O
   O285       1.0     0.371543     0.794820     0.544445    Uiso  ? O
   O286       1.0     0.335868     0.770006     0.541348    Uiso  ? O
   O287       1.0     0.520004     0.761217     0.405222    Uiso  ? O
   O288       1.0     0.507037     0.725895     0.383669    Uiso  ? O
   O289       1.0     0.514976     0.804070     0.355469    Uiso  ? O
   O290       1.0     0.528014     0.765144     0.341842    Uiso  ? O
   O291       1.0     0.455788     0.791563     0.374356    Uiso  ? O
   O292       1.0     0.462784     0.771103     0.337145    Uiso  ? O
   O293       1.0     0.460613     0.766937     0.398137    Uiso  ? O
   O294       1.0     0.474092     0.727507     0.383439    Uiso  ? O
   O295       1.0     0.403555     0.866341     0.637787    Uiso  ? O
   O296       1.0     0.389624     0.880333     0.676643    Uiso  ? O
   O297       1.0     0.377879     0.863568     0.615746    Uiso  ? O
   O298       1.0     0.343515     0.868551     0.642583    Uiso  ? O
   O299       1.0     0.361106     0.125114     0.603068    Uiso  ? O
   O300       1.0     0.348345     0.136661     0.643261    Uiso  ? O
   O301       1.0     0.413494     0.123914     0.643604    Uiso  ? O
   O302       1.0     0.393880     0.113010     0.681277    Uiso  ? O
   O303       1.0     0.356176     0.199354     0.532784    Uiso  ? O
   O304       1.0     0.341627     0.237806     0.546995    Uiso  ? O
   O305       1.0     0.367334     0.209840     0.470538    Uiso  ? O
   O306       1.0     0.328571     0.224145     0.485814    Uiso  ? O
   O307       1.0     0.390641     0.232803     0.469825    Uiso  ? O
   O308       1.0     0.373810     0.270661     0.482761    Uiso  ? O
   O309       1.0     0.402385     0.248455     0.530461    Uiso  ? O
   O310       1.0     0.363397     0.260015     0.545559    Uiso  ? O
   O311       1.0     0.527654     0.796908     0.647081    Uiso  ? O
   O312       1.0     0.542393     0.756816     0.653826    Uiso  ? O
   O313       1.0     0.525359     0.757361     0.594302    Uiso  ? O
   O314       1.0     0.537317     0.736545     0.630236    Uiso  ? O
   O315       1.0     0.466373     0.768227     0.611737    Uiso  ? O
   O316       1.0     0.478903     0.728753     0.624271    Uiso  ? O
   O317       1.0     0.466598     0.789274     0.635265    Uiso  ? O
   O318       1.0     0.483721     0.773348     0.672195    Uiso  ? O
   O319       1.0     0.418125     0.895623     0.417938    Uiso  ? O
   O320       1.0     0.412439     0.825151     0.496836    Uiso  ? O
   O321       1.0     0.501616     0.821381     0.413543    Uiso  ? O
   O322       1.0     0.414880     0.107555     0.582489    Uiso  ? O
   O323       1.0     0.417507     0.190451     0.516599    Uiso  ? O
   O324       1.0     0.509327     0.816067     0.588325    Uiso  ? O
   Zn61       1.0     0.386505     0.101605     0.390404    Uiso  ? Zn
   Zn62       1.0     0.339786     0.101158     0.352005    Uiso  ? Zn
   Zn63       1.0     0.385673     0.796118     0.503427    Uiso  ? Zn
   Zn64       1.0     0.343650     0.751507     0.505060    Uiso  ? Zn
   Zn65       1.0     0.495159     0.788765     0.387469    Uiso  ? Zn
   Zn66       1.0     0.492994     0.744215     0.347928    Uiso  ? Zn
   Zn67       1.0     0.392233     0.102434     0.616582    Uiso  ? Zn
   Zn68       1.0     0.356348     0.101565     0.663297    Uiso  ? Zn
   Zn69       1.0     0.386266     0.216892     0.508102    Uiso  ? Zn
   Zn70       1.0     0.343723     0.256714     0.507788    Uiso  ? Zn
   Zn71       1.0     0.503883     0.785391     0.615709    Uiso  ? Zn
   Zn72       1.0     0.503863     0.741106     0.655200    Uiso  ? Zn
   H337       1.0     0.407523     0.842596     0.502777    Uiso  ? H
   H338       1.0     0.427620     0.824051     0.485103    Uiso  ? H
   H339       1.0     0.574793     0.173741     0.476128    Uiso  ? H
   H340       1.0     0.562419     0.189683     0.502984    Uiso  ? H
   H341       1.0     0.498266     0.189651     0.434543    Uiso  ? H
   H342       1.0     0.484228     0.169164     0.413409    Uiso  ? H
   H343       1.0     0.572230     0.871240     0.415777    Uiso  ? H
   H344       1.0     0.567651     0.104817     0.418647    Uiso  ? H
   H345       1.0     0.494807     0.825633     0.580648    Uiso  ? H
   H346       1.0     0.527257     0.820705     0.583642    Uiso  ? H
   H347       1.0     0.591079     0.888909     0.558787    Uiso  ? H
   H348       1.0     0.569542     0.881090     0.582346    Uiso  ? H
   H349       1.0     0.592311     0.837300     0.496705    Uiso  ? H
   H350       1.0     0.574310     0.819196     0.476280    Uiso  ? H
   H351       1.0     0.415404     0.123521     0.571890    Uiso  ? H
   H352       1.0     0.423516     0.891600     0.575706    Uiso  ? H
   H353       1.0     0.507739     0.171489     0.576391    Uiso  ? H
   H354       1.0     0.482484     0.189668     0.565563    Uiso  ? H
   H355       1.0     0.435201     0.197535     0.514020    Uiso  ? H
   H356       1.0     0.413296     0.172559     0.520931    Uiso  ? H
   H357       1.0     0.504252     0.839092     0.407339    Uiso  ? H
   H358       1.0     0.508497     0.816808     0.430780    Uiso  ? H
   H359       1.0     0.415178     0.891501     0.436348    Uiso  ? H
   H360       1.0     0.434752     0.101234     0.413106    Uiso  ? H
   C577       1.0     0.654817     0.395869     0.138680    Uiso  ? C
   C578       1.0     0.668805     0.411443     0.158996    Uiso  ? C
   C579       1.0     0.695545     0.406248     0.163421    Uiso  ? C
   H361       1.0     0.705854     0.391182     0.151939    Uiso  ? H
   C580       1.0     0.709632     0.419721     0.183473    Uiso  ? C
   H362       1.0     0.730091     0.415063     0.185325    Uiso  ? H
   C581       1.0     0.696100     0.437928     0.199302    Uiso  ? C
   H363       1.0     0.706494     0.447624     0.214900    Uiso  ? H
   C582       1.0     0.669842     0.443755     0.194656    Uiso  ? C
   C583       1.0     0.656528     0.431509     0.173912    Uiso  ? C
   H364       1.0     0.637128     0.437592     0.167990    Uiso  ? H
   C584       1.0     0.656526     0.464203     0.210335    Uiso  ? C
   C585       1.0     0.615768     0.347933     0.147775    Uiso  ? C
   C586       1.0     0.603015     0.335677     0.171178    Uiso  ? C
   C587       1.0     0.612821     0.312393     0.182536    Uiso  ? C
   H365       1.0     0.629166     0.302371     0.173865    Uiso  ? H
   C588       1.0     0.600648     0.301054     0.204919    Uiso  ? C
   H366       1.0     0.608320     0.283398     0.214649    Uiso  ? H
   C589       1.0     0.578369     0.311983     0.215138    Uiso  ? C
   H367       1.0     0.569229     0.302035     0.231216    Uiso  ? H
   C590       1.0     0.568718     0.335723     0.205180    Uiso  ? C
   C591       1.0     0.580454     0.347527     0.182713    Uiso  ? C
   H368       1.0     0.571432     0.365757     0.174281    Uiso  ? H
   C592       1.0     0.544220     0.347639     0.215738    Uiso  ? C
   C593       1.0     0.604429     0.343967     0.863936    Uiso  ? C
   C594       1.0     0.591395     0.332256     0.840751    Uiso  ? C
   C595       1.0     0.600482     0.307479     0.832130    Uiso  ? C
   H369       1.0     0.617623     0.298197     0.841751    Uiso  ? H
   C596       1.0     0.588543     0.295110     0.810567    Uiso  ? C
   H370       1.0     0.594982     0.275784     0.803911    Uiso  ? H
   C597       1.0     0.567602     0.306998     0.796441    Uiso  ? C
   H371       1.0     0.559363     0.296528     0.779608    Uiso  ? H
   C598       1.0     0.558886     0.332330     0.804969    Uiso  ? C
   C599       1.0     0.569871     0.343965     0.828310    Uiso  ? C
   H372       1.0     0.562986     0.362992     0.835039    Uiso  ? H
   C600       1.0     0.536068     0.345474     0.791250    Uiso  ? C
   C601       1.0     0.662179     0.398227     0.873634    Uiso  ? C
   C602       1.0     0.678091     0.412421     0.853142    Uiso  ? C
   C603       1.0     0.703649     0.403548     0.844828    Uiso  ? C
   H373       1.0     0.713077     0.386933     0.854720    Uiso  ? H
   C604       1.0     0.716830     0.415071     0.823208    Uiso  ? C
   H374       1.0     0.736344     0.407350     0.817867    Uiso  ? H
   C605       1.0     0.704597     0.435003     0.808540    Uiso  ? C
   H375       1.0     0.713207     0.442439     0.790092    Uiso  ? H
   C606       1.0     0.679351     0.444092     0.815463    Uiso  ? C
   C607       1.0     0.666433     0.432690     0.838144    Uiso  ? C
   H376       1.0     0.645577     0.438196     0.843382    Uiso  ? H
   C608       1.0     0.664723     0.463406     0.799020    Uiso  ? C
   C609       1.0     0.614682     0.545061     0.258137    Uiso  ? C
   C610       1.0     0.603572     0.569144     0.268151    Uiso  ? C
   C611       1.0     0.617350     0.585297     0.285874    Uiso  ? C
   H377       1.0     0.636089     0.578502     0.294052    Uiso  ? H
   C612       1.0     0.606238     0.609064     0.295019    Uiso  ? C
   H378       1.0     0.617487     0.621231     0.309601    Uiso  ? H
   C613       1.0     0.580881     0.616564     0.286541    Uiso  ? C
   H379       1.0     0.572060     0.633977     0.294646    Uiso  ? H
   C614       1.0     0.567944     0.602192     0.267261    Uiso  ? C
   C615       1.0     0.577881     0.577244     0.259644    Uiso  ? C
   H380       1.0     0.565680     0.564787     0.247275    Uiso  ? H
   C616       1.0     0.543706     0.612803     0.255592    Uiso  ? C
   C617       1.0     0.609845     0.463417     0.258458    Uiso  ? C
   C618       1.0     0.594156     0.441807     0.270594    Uiso  ? C
   C619       1.0     0.597184     0.437316     0.297768    Uiso  ? C
   H381       1.0     0.612985     0.446864     0.308929    Uiso  ? H
   C620       1.0     0.581080     0.419636     0.311071    Uiso  ? C
   H382       1.0     0.583798     0.416742     0.332291    Uiso  ? H
   C621       1.0     0.561374     0.405999     0.297055    Uiso  ? C
   H383       1.0     0.548534     0.392574     0.307744    Uiso  ? H
   C622       1.0     0.557835     0.409744     0.269351    Uiso  ? C
   C623       1.0     0.575516     0.426820     0.255949    Uiso  ? C
   H384       1.0     0.573780     0.429138     0.234602    Uiso  ? H
   C624       1.0     0.535985     0.396129     0.256214    Uiso  ? C
   C625       1.0     0.658106     0.539935     0.209184    Uiso  ? C
   C626       1.0     0.669230     0.565160     0.197041    Uiso  ? C
   C627       1.0     0.689361     0.579160     0.210620    Uiso  ? C
   H385       1.0     0.698502     0.570734     0.227983    Uiso  ? H
   C628       1.0     0.697345     0.603393     0.200851    Uiso  ? C
   H386       1.0     0.712164     0.614158     0.212350    Uiso  ? H
   C629       1.0     0.687139     0.614401     0.177780    Uiso  ? C
   H387       1.0     0.695379     0.632578     0.171896    Uiso  ? H
   C630       1.0     0.668343     0.600200     0.162772    Uiso  ? C
   C631       1.0     0.659169     0.575696     0.172928    Uiso  ? C
   H388       1.0     0.642577     0.565415     0.162237    Uiso  ? H
   C632       1.0     0.655939     0.612902     0.138293    Uiso  ? C
   C633       1.0     0.473519     0.405215     0.260585    Uiso  ? C
   C634       1.0     0.458369     0.426122     0.275635    Uiso  ? C
   C635       1.0     0.461838     0.429146     0.303048    Uiso  ? C
   H389       1.0     0.474619     0.417204     0.314798    Uiso  ? H
   C636       1.0     0.444354     0.446107     0.317082    Uiso  ? C
   H390       1.0     0.445525     0.446879     0.338498    Uiso  ? H
   C637       1.0     0.424839     0.460273     0.302944    Uiso  ? C
   H391       1.0     0.411155     0.472499     0.314445    Uiso  ? H
   C638       1.0     0.422423     0.458272     0.275467    Uiso  ? C
   C639       1.0     0.439283     0.441333     0.262185    Uiso  ? C
   H392       1.0     0.437496     0.440253     0.240749    Uiso  ? H
   C640       1.0     0.404408     0.474777     0.260227    Uiso  ? C
   C641       1.0     0.459424     0.344390     0.210555    Uiso  ? C
   C642       1.0     0.435606     0.332806     0.198973    Uiso  ? C
   C643       1.0     0.424687     0.310050     0.209557    Uiso  ? C
   H393       1.0     0.432194     0.299929     0.226087    Uiso  ? H
   C644       1.0     0.402723     0.299224     0.198204    Uiso  ? C
   H394       1.0     0.394149     0.281011     0.206031    Uiso  ? H
   C645       1.0     0.392134     0.309134     0.174964    Uiso  ? C
   H395       1.0     0.375106     0.299580     0.166191    Uiso  ? H
   C646       1.0     0.402826     0.332853     0.164211    Uiso  ? C
   C647       1.0     0.424827     0.344459     0.176579    Uiso  ? C
   H396       1.0     0.434606     0.362228     0.167433    Uiso  ? H
   C648       1.0     0.390625     0.344433     0.140489    Uiso  ? C
   C649       1.0     0.608636     0.658210     0.140663    Uiso  ? C
   C650       1.0     0.596629     0.669222     0.164653    Uiso  ? C
   C651       1.0     0.608419     0.690791     0.177809    Uiso  ? C
   H397       1.0     0.625952     0.700635     0.169615    Uiso  ? H
   C652       1.0     0.596722     0.702774     0.199349    Uiso  ? C
   H398       1.0     0.604942     0.720831     0.207573    Uiso  ? H
   C653       1.0     0.574823     0.690871     0.211300    Uiso  ? C
   H399       1.0     0.567485     0.699851     0.229320    Uiso  ? H
   C654       1.0     0.562455     0.669236     0.199137    Uiso  ? C
   C655       1.0     0.573282     0.658933     0.175789    Uiso  ? C
   H400       1.0     0.563916     0.642460     0.165994    Uiso  ? H
   C656       1.0     0.538585     0.657900     0.211312    Uiso  ? C
   C657       1.0     0.651760     0.613627     0.857580    Uiso  ? C
   C658       1.0     0.663224     0.601620     0.833516    Uiso  ? C
   C659       1.0     0.686112     0.612378     0.822001    Uiso  ? C
   H401       1.0     0.695243     0.629560     0.828885    Uiso  ? H
   C660       1.0     0.696843     0.600433     0.800201    Uiso  ? C
   H402       1.0     0.715251     0.608626     0.792721    Uiso  ? H
   C661       1.0     0.685895     0.577837     0.789225    Uiso  ? C
   H403       1.0     0.695622     0.568352     0.772340    Uiso  ? H
   C662       1.0     0.662651     0.566156     0.800170    Uiso  ? C
   C663       1.0     0.651511     0.578613     0.822706    Uiso  ? C
   H404       1.0     0.634386     0.570683     0.832114    Uiso  ? H
   C664       1.0     0.652196     0.542693     0.788151    Uiso  ? C
   C665       1.0     0.601269     0.464743     0.744741    Uiso  ? C
   C666       1.0     0.582637     0.447545     0.729480    Uiso  ? C
   C667       1.0     0.583666     0.447162     0.701864    Uiso  ? C
   H405       1.0     0.597225     0.461023     0.692531    Uiso  ? H
   C668       1.0     0.568471     0.429298     0.687344    Uiso  ? C
   H406       1.0     0.570499     0.427898     0.665649    Uiso  ? H
   C669       1.0     0.550906     0.412191     0.701038    Uiso  ? C
   H407       1.0     0.538257     0.399191     0.688707    Uiso  ? H
   C670       1.0     0.549545     0.412415     0.728323    Uiso  ? C
   C671       1.0     0.564809     0.430059     0.742592    Uiso  ? C
   H408       1.0     0.563555     0.430126     0.763961    Uiso  ? H
   C672       1.0     0.531130     0.394747     0.742971    Uiso  ? C
   O325       1.0     0.629598     0.397567     0.136723    Uiso  ? O
   O326       1.0     0.668003     0.381152     0.122865    Uiso  ? O
   O327       1.0     0.608109     0.370999     0.139587    Uiso  ? O
   O328       1.0     0.633049     0.334453     0.135263    Uiso  ? O
   O329       1.0     0.590727     0.359759     0.878248    Uiso  ? O
   O330       1.0     0.629205     0.341214     0.867323    Uiso  ? O
   O331       1.0     0.637509     0.402083     0.874533    Uiso  ? O
   O332       1.0     0.673188     0.382586     0.889929    Uiso  ? O
   O333       1.0     0.600103     0.528191     0.246557    Uiso  ? O
   O334       1.0     0.640405     0.542149     0.257196    Uiso  ? O
   O335       1.0     0.608810     0.466177     0.233246    Uiso  ? O
   O336       1.0     0.621990     0.480009     0.272219    Uiso  ? O
   O337       1.0     0.631348     0.464180     0.210784    Uiso  ? O
   O338       1.0     0.669260     0.479568     0.225492    Uiso  ? O
   O339       1.0     0.643780     0.524108     0.195984    Uiso  ? O
   O340       1.0     0.660966     0.536287     0.234021    Uiso  ? O
   O341       1.0     0.475135     0.407038     0.235446    Uiso  ? O
   O342       1.0     0.487203     0.387443     0.272332    Uiso  ? O
   O343       1.0     0.476784     0.354760     0.196474    Uiso  ? O
   O344       1.0     0.461275     0.344179     0.234965    Uiso  ? O
   O345       1.0     0.538164     0.371069     0.208715    Uiso  ? O
   O346       1.0     0.529734     0.335142     0.231851    Uiso  ? O
   O347       1.0     0.535357     0.395424     0.230693    Uiso  ? O
   O348       1.0     0.518341     0.384257     0.269043    Uiso  ? O
   O349       1.0     0.595179     0.643855     0.124536    Uiso  ? O
   O350       1.0     0.633480     0.660730     0.136985    Uiso  ? O
   O351       1.0     0.643715     0.597800     0.122112    Uiso  ? O
   O352       1.0     0.656482     0.637700     0.134909    Uiso  ? O
   O353       1.0     0.626881     0.612839     0.862220    Uiso  ? O
   O354       1.0     0.666236     0.627265     0.872927    Uiso  ? O
   O355       1.0     0.602408     0.633679     0.863537    Uiso  ? O
   O356       1.0     0.616999     0.672595     0.876231    Uiso  ? O
   O357       1.0     0.628060     0.536473     0.792419    Uiso  ? O
   O358       1.0     0.666382     0.527997     0.773351    Uiso  ? O
   O359       1.0     0.647877     0.478770     0.809518    Uiso  ? O
   O360       1.0     0.667597     0.463662     0.774084    Uiso  ? O
   O361       1.0     0.596969     0.468717     0.769219    Uiso  ? O
   O362       1.0     0.620702     0.476262     0.733458    Uiso  ? O
   O363       1.0     0.605290     0.529220     0.770823    Uiso  ? O
   O364       1.0     0.620667     0.511333     0.733405    Uiso  ? O
   O365       1.0     0.492077     0.646563     0.190272    Uiso  ? O
   O366       1.0     0.477208     0.671598     0.223091    Uiso  ? O
   O367       1.0     0.465053     0.607893     0.231315    Uiso  ? O
   O368       1.0     0.477406     0.623827     0.269947    Uiso  ? O
   O369       1.0     0.531326     0.599710     0.238815    Uiso  ? O
   O370       1.0     0.536542     0.636477     0.259903    Uiso  ? O
   O371       1.0     0.523386     0.644068     0.197302    Uiso  ? O
   O372       1.0     0.535533     0.660172     0.236368    Uiso  ? O
   O373       1.0     0.579974     0.420074     0.897063    Uiso  ? O
   O374       1.0     0.582560     0.507179     0.188399    Uiso  ? O
   O375       1.0     0.495147     0.412737     0.176491    Uiso  ? O
   O376       1.0     0.581878     0.584947     0.108026    Uiso  ? O
   O377       1.0     0.588588     0.491153     0.824239    Uiso  ? O
   O378       1.0     0.493822     0.580286     0.189463    Uiso  ? O
   Zn73       1.0     0.607544     0.389572     0.101931    Uiso  ? Zn
   Zn74       1.0     0.653036     0.347491     0.101851    Uiso  ? Zn
   Zn75       1.0     0.613443     0.501953     0.215877    Uiso  ? Zn
   Zn76       1.0     0.654776     0.502302     0.256697    Uiso  ? Zn
   Zn77       1.0     0.499004     0.386856     0.209093    Uiso  ? Zn
   Zn78       1.0     0.497762     0.350025     0.254474    Uiso  ? Zn
   Zn79       1.0     0.609957     0.613502     0.101582    Uiso  ? Zn
   Zn80       1.0     0.651517     0.657720     0.897077    Uiso  ? Zn
   Zn81       1.0     0.615905     0.495356     0.793628    Uiso  ? Zn
   Zn82       1.0     0.657016     0.495885     0.749526    Uiso  ? Zn
   Zn83       1.0     0.499915     0.612671     0.214154    Uiso  ? Zn
   Zn84       1.0     0.498120     0.655872     0.254295    Uiso  ? Zn
   C673       1.0     0.352805     0.618778     0.857817    Uiso  ? C
   C674       1.0     0.338664     0.606089     0.835632    Uiso  ? C
   C675       1.0     0.315276     0.616832     0.827200    Uiso  ? C
   H409       1.0     0.306485     0.634129     0.836801    Uiso  ? H
   C676       1.0     0.300836     0.604839     0.806781    Uiso  ? C
   H410       1.0     0.282203     0.613552     0.800448    Uiso  ? H
   C677       1.0     0.310620     0.581902     0.795139    Uiso  ? C
   H411       1.0     0.298100     0.571982     0.780554    Uiso  ? H
   C678       1.0     0.334402     0.570442     0.802036    Uiso  ? C
   C679       1.0     0.348961     0.583401     0.822112    Uiso  ? C
   H412       1.0     0.367024     0.574428     0.829562    Uiso  ? H
   C680       1.0     0.345471     0.546092     0.788291    Uiso  ? C
   C681       1.0     0.401467     0.659287     0.863144    Uiso  ? C
   C682       1.0     0.414762     0.672872     0.840894    Uiso  ? C
   C683       1.0     0.407683     0.698774     0.833137    Uiso  ? C
   H413       1.0     0.391854     0.709114     0.842324    Uiso  ? H
   C684       1.0     0.419749     0.709649     0.810747    Uiso  ? C
   H414       1.0     0.413707     0.729053     0.804227    Uiso  ? H
   C685       1.0     0.438236     0.696005     0.796026    Uiso  ? C
   H415       1.0     0.446872     0.703809     0.778328    Uiso  ? H
   C686       1.0     0.447243     0.671266     0.805499    Uiso  ? C
   C687       1.0     0.435347     0.659828     0.828134    Uiso  ? C
   H416       1.0     0.441841     0.640925     0.835075    Uiso  ? H
   C688       1.0     0.466932     0.655828     0.791163    Uiso  ? C
   C689       1.0     0.410343     0.666054     0.127002    Uiso  ? C
   C690       1.0     0.430907     0.681405     0.141599    Uiso  ? C
   C691       1.0     0.434351     0.709023     0.139698    Uiso  ? C
   H417       1.0     0.423593     0.720311     0.124723    Uiso  ? H
   C692       1.0     0.449181     0.723256     0.158386    Uiso  ? C
   H418       1.0     0.450581     0.744304     0.157072    Uiso  ? H
   C693       1.0     0.463295     0.709083     0.177993    Uiso  ? C
   H419       1.0     0.474739     0.719658     0.193103    Uiso  ? H
   C694       1.0     0.463517     0.681841     0.178623    Uiso  ? C
   C695       1.0     0.446512     0.668388     0.160899    Uiso  ? C
   H420       1.0     0.446185     0.647232     0.164146    Uiso  ? H
   C696       1.0     0.478500     0.666508     0.198428    Uiso  ? C
   C697       1.0     0.351864     0.615934     0.144702    Uiso  ? C
   C698       1.0     0.338925     0.604855     0.167612    Uiso  ? C
   C699       1.0     0.315109     0.616042     0.178245    Uiso  ? C
   H421       1.0     0.304780     0.631674     0.167831    Uiso  ? H
   C700       1.0     0.304576     0.604114     0.200648    Uiso  ? C
   H422       1.0     0.284994     0.609402     0.207680    Uiso  ? H
   C701       1.0     0.315036     0.581244     0.211255    Uiso  ? C
   H423       1.0     0.305215     0.571463     0.227809    Uiso  ? H
   C702       1.0     0.338392     0.570057     0.201272    Uiso  ? C
   C703       1.0     0.349674     0.581767     0.179052    Uiso  ? C
   H424       1.0     0.367901     0.574135     0.170156    Uiso  ? H
   C704       1.0     0.349455     0.545353     0.212318    Uiso  ? C
   C705       1.0     0.389837     0.464836     0.743755    Uiso  ? C
   C706       1.0     0.400386     0.440055     0.732003    Uiso  ? C
   C707       1.0     0.386471     0.428291     0.711092    Uiso  ? C
   H425       1.0     0.368110     0.436425     0.704076    Uiso  ? H
   C708       1.0     0.394882     0.404174     0.702130    Uiso  ? C
   H426       1.0     0.384490     0.393080     0.687020    Uiso  ? H
   C709       1.0     0.417529     0.391679     0.713025    Uiso  ? C
   H427       1.0     0.423383     0.372337     0.705923    Uiso  ? H
   C710       1.0     0.432086     0.404206     0.732909    Uiso  ? C
   C711       1.0     0.424019     0.428552     0.741584    Uiso  ? C
   H428       1.0     0.434251     0.438321     0.757759    Uiso  ? H
   C712       1.0     0.455997     0.391458     0.744103    Uiso  ? C
   C713       1.0     0.401305     0.524612     0.733133    Uiso  ? C
   C714       1.0     0.418319     0.542941     0.718376    Uiso  ? C
   C715       1.0     0.416200     0.546025     0.690613    Uiso  ? C
   H429       1.0     0.403039     0.533044     0.680001    Uiso  ? H
   C716       1.0     0.431639     0.565780     0.677571    Uiso  ? C
   H430       1.0     0.428623     0.570171     0.656459    Uiso  ? H
   C717       1.0     0.448796     0.581805     0.691850    Uiso  ? C
   H431       1.0     0.459448     0.598222     0.682483    Uiso  ? H
   C718       1.0     0.449671     0.579721     0.719686    Uiso  ? C
   C719       1.0     0.434699     0.560479     0.732615    Uiso  ? C
   H432       1.0     0.435750     0.559355     0.753874    Uiso  ? H
   C720       1.0     0.466361     0.598617     0.735769    Uiso  ? C
   C721       1.0     0.345451     0.459749     0.788020    Uiso  ? C
   C722       1.0     0.335702     0.434426     0.799239    Uiso  ? C
   C723       1.0     0.317730     0.418773     0.784536    Uiso  ? C
   H433       1.0     0.310212     0.424910     0.765195    Uiso  ? H
   C724       1.0     0.307402     0.395857     0.795431    Uiso  ? C
   H434       1.0     0.291662     0.384590     0.784896    Uiso  ? H
   C725       1.0     0.314753     0.387745     0.820674    Uiso  ? C
   H435       1.0     0.307146     0.369293     0.827478    Uiso  ? H
   C726       1.0     0.333126     0.401885     0.835691    Uiso  ? C
   C727       1.0     0.343559     0.424994     0.825138    Uiso  ? C
   H436       1.0     0.359072     0.435078     0.835000    Uiso  ? H
   C728       1.0     0.343989     0.389732     0.860309    Uiso  ? C
   C729       1.0     0.532158     0.595917     0.740998    Uiso  ? C
   C730       1.0     0.552061     0.577645     0.728204    Uiso  ? C
   C731       1.0     0.553582     0.576610     0.699920    Uiso  ? C
   H437       1.0     0.539738     0.587746     0.687356    Uiso  ? H
   C732       1.0     0.570555     0.559270     0.687799    Uiso  ? C
   H438       1.0     0.571100     0.557510     0.666338    Uiso  ? H
   C733       1.0     0.588989     0.544739     0.703023    Uiso  ? C
   H439       1.0     0.602831     0.531756     0.692590    Uiso  ? H
   C734       1.0     0.588159     0.545428     0.730563    Uiso  ? C
   C735       1.0     0.569148     0.561484     0.743299    Uiso  ? C
   H440       1.0     0.569609     0.563086     0.764474    Uiso  ? H
   C736       1.0     0.605954     0.528355     0.745667    Uiso  ? C
   C737       1.0     0.533957     0.653405     0.790730    Uiso  ? C
   C738       1.0     0.553776     0.668894     0.805848    Uiso  ? C
   C739       1.0     0.560865     0.694445     0.797181    Uiso  ? C
   H441       1.0     0.551564     0.704064     0.780244    Uiso  ? H
   C740       1.0     0.578736     0.708968     0.812321    Uiso  ? C
   H442       1.0     0.584041     0.728704     0.807166    Uiso  ? H
   C741       1.0     0.591665     0.697273     0.833872    Uiso  ? C
   H443       1.0     0.606135     0.709296     0.843943    Uiso  ? H
   C742       1.0     0.587871     0.671118     0.839063    Uiso  ? C
   C743       1.0     0.567957     0.656928     0.825898    Uiso  ? C
   H444       1.0     0.564319     0.636894     0.831423    Uiso  ? H
   C744       1.0     0.603289     0.659024     0.860855    Uiso  ? C
   C745       1.0     0.388178     0.341698     0.858178    Uiso  ? C
   C746       1.0     0.399397     0.330443     0.833807    Uiso  ? C
   C747       1.0     0.383884     0.313129     0.818258    Uiso  ? C
   H445       1.0     0.365307     0.306402     0.826262    Uiso  ? H
   C748       1.0     0.394261     0.303528     0.793985    Uiso  ? C
   H446       1.0     0.383311     0.289638     0.782377    Uiso  ? H
   C749       1.0     0.417699     0.313370     0.784364    Uiso  ? C
   H447       1.0     0.423583     0.306330     0.764877    Uiso  ? H
   C750       1.0     0.432295     0.332276     0.798813    Uiso  ? C
   C751       1.0     0.424302     0.338767     0.824363    Uiso  ? C
   H448       1.0     0.436998     0.350616     0.837931    Uiso  ? H
   C752       1.0     0.457155     0.342911     0.787357    Uiso  ? C
   C753       1.0     0.345510     0.390783     0.139009    Uiso  ? C
   C754       1.0     0.332940     0.403232     0.162641    Uiso  ? C
   C755       1.0     0.309022     0.393167     0.172846    Uiso  ? C
   H449       1.0     0.299560     0.375252     0.164762    Uiso  ? H
   C756       1.0     0.299066     0.403902     0.195954    Uiso  ? C
   H450       1.0     0.282212     0.395651     0.204727    Uiso  ? H
   C757       1.0     0.311033     0.425788     0.208430    Uiso  ? C
   H451       1.0     0.302115     0.433656     0.225653    Uiso  ? H
   C758       1.0     0.334663     0.436569     0.198121    Uiso  ? C
   C759       1.0     0.344734     0.425534     0.174431    Uiso  ? C
   H452       1.0     0.361495     0.434943     0.165333    Uiso  ? H
   C760       1.0     0.347055     0.459753     0.210114    Uiso  ? C
   C761       1.0     0.394749     0.536283     0.257159    Uiso  ? C
   C762       1.0     0.409146     0.557969     0.270148    Uiso  ? C
   C763       1.0     0.403955     0.563596     0.297056    Uiso  ? C
   H453       1.0     0.390817     0.551480     0.308080    Uiso  ? H
   C764       1.0     0.415664     0.585230     0.309102    Uiso  ? C
   H454       1.0     0.413229     0.589040     0.330082    Uiso  ? H
   C765       1.0     0.434727     0.599688     0.295555    Uiso  ? C
   H455       1.0     0.444723     0.614903     0.306796    Uiso  ? H
   C766       1.0     0.441053     0.594233     0.269523    Uiso  ? C
   C767       1.0     0.426794     0.575226     0.255514    Uiso  ? C
   H456       1.0     0.430790     0.571743     0.234680    Uiso  ? H
   C768       1.0     0.462134     0.609254     0.256060    Uiso  ? C
   O379       1.0     0.377611     0.613652     0.861692    Uiso  ? O
   O380       1.0     0.340166     0.634042     0.873314    Uiso  ? O
   O381       1.0     0.401706     0.634058     0.865133    Uiso  ? O
   O382       1.0     0.387684     0.672905     0.879344    Uiso  ? O
   O383       1.0     0.412707     0.641080     0.125492    Uiso  ? O
   O384       1.0     0.390939     0.677144     0.115266    Uiso  ? O
   O385       1.0     0.361363     0.601130     0.126470    Uiso  ? O
   O386       1.0     0.351924     0.640813     0.141615    Uiso  ? O
   O387       1.0     0.404017     0.480029     0.758363    Uiso  ? O
   O388       1.0     0.365163     0.469307     0.741531    Uiso  ? O
   O389       1.0     0.410090     0.512492     0.753173    Uiso  ? O
   O390       1.0     0.376145     0.526435     0.729484    Uiso  ? O
   O391       1.0     0.369809     0.540921     0.790934    Uiso  ? O
   O392       1.0     0.330442     0.530946     0.774858    Uiso  ? O
   O393       1.0     0.359702     0.474749     0.801578    Uiso  ? O
   O394       1.0     0.342423     0.465545     0.763738    Uiso  ? O
   O395       1.0     0.530095     0.596028     0.765563    Uiso  ? O
   O396       1.0     0.516011     0.609315     0.726699    Uiso  ? O
   O397       1.0     0.516660     0.640446     0.802621    Uiso  ? O
   O398       1.0     0.534522     0.654268     0.765533    Uiso  ? O
   O399       1.0     0.483944     0.642215     0.803616    Uiso  ? O
   O400       1.0     0.467526     0.656288     0.765498    Uiso  ? O
   O401       1.0     0.465357     0.597910     0.760957    Uiso  ? O
   O402       1.0     0.483938     0.612874     0.724728    Uiso  ? O
   O403       1.0     0.402936     0.354548     0.873409    Uiso  ? O
   O404       1.0     0.362819     0.342579     0.861175    Uiso  ? O
   O405       1.0     0.358456     0.403090     0.875637    Uiso  ? O
   O406       1.0     0.341187     0.364712     0.863488    Uiso  ? O
   O407       1.0     0.369844     0.392201     0.135023    Uiso  ? O
   O408       1.0     0.331423     0.376151     0.123930    Uiso  ? O
   O409       1.0     0.393201     0.368904     0.136204    Uiso  ? O
   O410       1.0     0.376667     0.330133     0.125316    Uiso  ? O
   O411       1.0     0.357954     0.477117     0.195657    Uiso  ? O
   O412       1.0     0.343263     0.464573     0.234663    Uiso  ? O
   O413       1.0     0.373493     0.539321     0.206998    Uiso  ? O
   O414       1.0     0.336831     0.531245     0.229289    Uiso  ? O
   O415       1.0     0.395998     0.534442     0.232040    Uiso  ? O
   O416       1.0     0.380163     0.520839     0.270218    Uiso  ? O
   O417       1.0     0.408374     0.477546     0.235597    Uiso  ? O
   O418       1.0     0.383216     0.484447     0.270391    Uiso  ? O
   O419       1.0     0.533402     0.371161     0.791726    Uiso  ? O
   O420       1.0     0.522149     0.332752     0.774759    Uiso  ? O
   O421       1.0     0.531699     0.392770     0.768069    Uiso  ? O
   O422       1.0     0.514851     0.380990     0.729883    Uiso  ? O
   O423       1.0     0.473003     0.405099     0.756623    Uiso  ? O
   O424       1.0     0.458832     0.366174     0.742145    Uiso  ? O
   O425       1.0     0.473288     0.355641     0.801700    Uiso  ? O
   O426       1.0     0.460019     0.342111     0.761909    Uiso  ? O
   O427       1.0     0.417713     0.581453     0.105874    Uiso  ? O
   O428       1.0     0.407825     0.505119     0.822675    Uiso  ? O
   O429       1.0     0.493221     0.576569     0.812941    Uiso  ? O
   O430       1.0     0.418580     0.414927     0.888874    Uiso  ? O
   O431       1.0     0.414734     0.496434     0.176068    Uiso  ? O
   O432       1.0     0.491001     0.417123     0.816623    Uiso  ? O
   Zn85       1.0     0.392697     0.613895     0.102482    Uiso  ? Zn
   Zn86       1.0     0.354098     0.658643     0.104860    Uiso  ? Zn
   Zn87       1.0     0.386377     0.503762     0.788206    Uiso  ? Zn
   Zn88       1.0     0.345127     0.505240     0.744930    Uiso  ? Zn
   Zn89       1.0     0.496528     0.606431     0.786219    Uiso  ? Zn
   Zn90       1.0     0.500371     0.646152     0.743076    Uiso  ? Zn
   Zn91       1.0     0.389622     0.387263     0.896969    Uiso  ? Zn
   Zn92       1.0     0.345678     0.345020     0.101645    Uiso  ? Zn
   Zn93       1.0     0.389223     0.500701     0.208139    Uiso  ? Zn
   Zn94       1.0     0.346609     0.500171     0.254371    Uiso  ? Zn
   Zn95       1.0     0.495113     0.388181     0.786964    Uiso  ? Zn
   Zn96       1.0     0.497055     0.346827     0.744899    Uiso  ? Zn
   H457       1.0     0.423770     0.515566     0.822274    Uiso  ? H
   H458       1.0     0.400461     0.499871     0.839242    Uiso  ? H
   H459       1.0     0.580377     0.494516     0.174070    Uiso  ? H
   H460       1.0     0.570336     0.521689     0.191959    Uiso  ? H
   H461       1.0     0.476725     0.571313     0.190654    Uiso  ? H
   H462       1.0     0.506710     0.573517     0.176439    Uiso  ? H
   H463       1.0     0.588302     0.568285     0.114256    Uiso  ? H
   H464       1.0     0.563158     0.587515     0.109641    Uiso  ? H
   H465       1.0     0.473963     0.424546     0.822173    Uiso  ? H
   H466       1.0     0.507484     0.425463     0.822406    Uiso  ? H
   H467       1.0     0.573974     0.428313     0.880579    Uiso  ? H
   H468       1.0     0.575931     0.428226     0.114580    Uiso  ? H
   H469       1.0     0.571220     0.483226     0.822092    Uiso  ? H
   H470       1.0     0.592248     0.498605     0.841421    Uiso  ? H
   H471       1.0     0.416988     0.432652     0.895722    Uiso  ? H
   H472       1.0     0.434019     0.408265     0.879933    Uiso  ? H
   H473       1.0     0.477594     0.417447     0.170657    Uiso  ? H
   H474       1.0     0.510794     0.419505     0.167815    Uiso  ? H
   H475       1.0     0.429688     0.507825     0.173368    Uiso  ? H
   H476       1.0     0.413519     0.481123     0.164753    Uiso  ? H
   H477       1.0     0.488423     0.579247     0.831326    Uiso  ? H
   H478       1.0     0.494209     0.558616     0.806184    Uiso  ? H
   H479       1.0     0.410643     0.566114     0.897318    Uiso  ? H
   H480       1.0     0.430405     0.581959     0.120101    Uiso  ? H
   N1         1.0     0.896684     0.681314     0.315411    Uiso  ? N
   C769       1.0     0.898592     0.669538     0.289601    Uiso  ? C
   C770       1.0     0.898648     0.688397     0.266521    Uiso  ? C
   N2         1.0     0.896346     0.715612     0.277264    Uiso  ? N
   C771       1.0     0.872080     0.717911     0.294099    Uiso  ? C
   C772       1.0     0.871197     0.696175     0.315798    Uiso  ? C
   C773       1.0     0.121262     0.700297     0.318796    Uiso  ? C
   C774       1.0     0.121930     0.720217     0.295080    Uiso  ? C
   H481       1.0     0.894324     0.648445     0.286699    Uiso  ? H
   H482       1.0     0.881539     0.683698     0.253519    Uiso  ? H
   H483       1.0     0.855346     0.716262     0.279376    Uiso  ? H
   H484       1.0     0.869573     0.704891     0.335313    Uiso  ? H
   H485       1.0     0.139802     0.688503     0.319802    Uiso  ? H
   H486       1.0     0.121323     0.740733     0.303603    Uiso  ? H
   H487       1.0     0.120195     0.685861     0.255473    Uiso  ? H
   H488       1.0     0.870166     0.737663     0.302406    Uiso  ? H
   H489       1.0     0.853701     0.683478     0.313446    Uiso  ? H
   H490       1.0     0.118874     0.711390     0.337989    Uiso  ? H
   H491       1.0     0.140955     0.718097     0.284296    Uiso  ? H
   N3         1.0     0.898023     0.281706     0.722099    Uiso  ? N
   C775       1.0     0.124985     0.297362     0.722338    Uiso  ? C
   C776       1.0     0.125424     0.318715     0.702150    Uiso  ? C
   N4         1.0     0.897534     0.316906     0.686023    Uiso  ? N
   C777       1.0     0.895847     0.290316     0.673937    Uiso  ? C
   C778       1.0     0.895440     0.269082     0.695958    Uiso  ? C
   C779       1.0     0.875038     0.299332     0.725672    Uiso  ? C
   C780       1.0     0.875228     0.320771     0.703653    Uiso  ? C
   H492       1.0     0.141329     0.292908     0.734290    Uiso  ? H
   H493       1.0     0.141984     0.317152     0.688614    Uiso  ? H
   H494       1.0     0.114744     0.285464     0.659459    Uiso  ? H
   H495       1.0     0.876638     0.257078     0.695725    Uiso  ? H
   H496       1.0     0.876854     0.309526     0.744215    Uiso  ? H
   H497       1.0     0.856401     0.319663     0.692128    Uiso  ? H
   H498       1.0     0.126716     0.337848     0.712162    Uiso  ? H
   H499       1.0     0.877774     0.288032     0.661906    Uiso  ? H
   H500       1.0     0.114241     0.254418     0.691585    Uiso  ? H
   H501       1.0     0.855960     0.288444     0.725427    Uiso  ? H
   H502       1.0     0.874635     0.341247     0.712006    Uiso  ? H
   N5         1.0     0.103490     0.688120     0.680593    Uiso  ? N
   C781       1.0     0.120167     0.709877     0.672669    Uiso  ? C
   C782       1.0     0.121779     0.732261     0.691972    Uiso  ? C
   N6         1.0     0.105899     0.725093     0.715771    Uiso  ? N
   C783       1.0     0.875305     0.720258     0.707402    Uiso  ? C
   C784       1.0     0.874302     0.698006     0.686118    Uiso  ? C
   C785       1.0     0.114742     0.677336     0.705534    Uiso  ? C
   C786       1.0     0.116315     0.700358     0.726502    Uiso  ? C
   H503       1.0     0.130096     0.710430     0.653994    Uiso  ? H
   H504       1.0     0.113604     0.749587     0.681529    Uiso  ? H
   H505       1.0     0.867157     0.739395     0.699511    Uiso  ? H
   H506       1.0     0.860920     0.681576     0.693141    Uiso  ? H
   H507       1.0     0.134634     0.669844     0.701155    Uiso  ? H
   H508       1.0     0.103977     0.695961     0.743757    Uiso  ? H
   H509       1.0     0.142544     0.736699     0.697151    Uiso  ? H
   H510       1.0     0.864025     0.714301     0.724847    Uiso  ? H
   H511       1.0     0.864220     0.706440     0.668371    Uiso  ? H
   H512       1.0     0.898693     0.660401     0.712474    Uiso  ? H
   H513       1.0     0.136939     0.703197     0.733678    Uiso  ? H
   N7         1.0     0.895849     0.321306     0.320359    Uiso  ? N
   C787       1.0     0.870837     0.307162     0.317473    Uiso  ? C
   C788       1.0     0.869555     0.286557     0.297038    Uiso  ? C
   N8         1.0     0.895280     0.286320     0.282716    Uiso  ? N
   C789       1.0     0.101754     0.313419     0.271487    Uiso  ? C
   C790       1.0     0.102174     0.334305     0.294680    Uiso  ? C
   C791       1.0     0.118944     0.300921     0.324676    Uiso  ? C
   C792       1.0     0.118918     0.281083     0.301755    Uiso  ? C
   H514       1.0     0.856300     0.308014     0.333329    Uiso  ? H
   H515       1.0     0.852836     0.290855     0.282890    Uiso  ? H
   H516       1.0     0.882388     0.317257     0.257611    Uiso  ? H
   H517       1.0     0.120531     0.346657     0.295791    Uiso  ? H
   H518       1.0     0.116363     0.290154     0.343383    Uiso  ? H
   H519       1.0     0.138033     0.281304     0.291280    Uiso  ? H
   H520       1.0     0.865953     0.266777     0.307793    Uiso  ? H
   H521       1.0     0.119655     0.314841     0.258387    Uiso  ? H
   H522       1.0     0.884553     0.348976     0.290340    Uiso  ? H
   H523       1.0     0.138074     0.311302     0.327280    Uiso  ? H
   H524       1.0     0.116643     0.259903     0.309397    Uiso  ? H
   N9         1.0     0.685938     0.897207     0.676181    Uiso  ? N
   C793       1.0     0.684593     0.874461     0.693175    Uiso  ? C
   C794       1.0     0.703626     0.874564     0.715745    Uiso  ? C
   N10        1.0     0.720276     0.898428     0.713740    Uiso  ? N
   C795       1.0     0.733820     0.898108     0.687820    Uiso  ? C
   C796       1.0     0.713160     0.897863     0.665390    Uiso  ? C
   C797       1.0     0.680573     0.120258     0.692821    Uiso  ? C
   C798       1.0     0.701911     0.122027     0.715042    Uiso  ? C
   H525       1.0     0.675165     0.855691     0.687325    Uiso  ? H
   H526       1.0     0.716966     0.856582     0.715672    Uiso  ? H
   H527       1.0     0.746360     0.880357     0.686837    Uiso  ? H
   H528       1.0     0.713584     0.116214     0.652702    Uiso  ? H
   H529       1.0     0.661262     0.118419     0.702184    Uiso  ? H
   H530       1.0     0.713877     0.140460     0.712435    Uiso  ? H
   H531       1.0     0.692219     0.874518     0.734128    Uiso  ? H
   H532       1.0     0.744673     0.116268     0.685136    Uiso  ? H
   H533       1.0     0.717061     0.879725     0.652880    Uiso  ? H
   H534       1.0     0.681494     0.138172     0.679479    Uiso  ? H
   H535       1.0     0.691903     0.123921     0.734134    Uiso  ? H
   N11        1.0     0.672446     0.102360     0.310153    Uiso  ? N
   C799       1.0     0.696250     0.889089     0.318842    Uiso  ? C
   C800       1.0     0.719269     0.888929     0.299784    Uiso  ? C
   N12        1.0     0.711015     0.103413     0.275352    Uiso  ? N
   C801       1.0     0.688105     0.890859     0.263932    Uiso  ? C
   C802       1.0     0.665529     0.890367     0.285340    Uiso  ? C
   C803       1.0     0.679450     0.129751     0.304537    Uiso  ? C
   C804       1.0     0.702373     0.130456     0.282541    Uiso  ? C
   H536       1.0     0.696203     0.877963     0.336640    Uiso  ? H
   H537       1.0     0.725171     0.868083     0.294760    Uiso  ? H
   H538       1.0     0.693469     0.869539     0.260242    Uiso  ? H
   H539       1.0     0.648503     0.102361     0.275904    Uiso  ? H
   H540       1.0     0.685300     0.139786     0.322440    Uiso  ? H
   H541       1.0     0.695284     0.140903     0.264763    Uiso  ? H
   H542       1.0     0.736526     0.898240     0.308629    Uiso  ? H
   H543       1.0     0.680366     0.100000     0.244626    Uiso  ? H
   H544       1.0     0.657664     0.869444     0.288447    Uiso  ? H
   H545       1.0     0.661736     0.141015     0.298222    Uiso  ? H
   H546       1.0     0.719287     0.142774     0.289073    Uiso  ? H
   N13        1.0     0.275025     0.899567     0.288247    Uiso  ? N
   C805       1.0     0.276026     0.124659     0.301097    Uiso  ? C
   C806       1.0     0.297631     0.127427     0.321127    Uiso  ? C
   N14        1.0     0.310678     0.101463     0.323742    Uiso  ? N
   C807       1.0     0.292212     0.880296     0.330290    Uiso  ? C
   C808       1.0     0.269609     0.880118     0.309439    Uiso  ? C
   C809       1.0     0.301116     0.893328     0.275711    Uiso  ? C
   C810       1.0     0.323610     0.894402     0.297526    Uiso  ? C
   H547       1.0     0.260587     0.139735     0.298240    Uiso  ? H
   H548       1.0     0.288026     0.131944     0.340191    Uiso  ? H
   H549       1.0     0.283160     0.884738     0.350239    Uiso  ? H
   H550       1.0     0.266446     0.860112     0.300456    Uiso  ? H
   H551       1.0     0.304047     0.107349     0.260175    Uiso  ? H
   H552       1.0     0.334270     0.875583     0.297777    Uiso  ? H
   H553       1.0     0.311819     0.143301     0.315498    Uiso  ? H
   H554       1.0     0.301936     0.861058     0.332229    Uiso  ? H
   H555       1.0     0.251447     0.885072     0.320325    Uiso  ? H
   H556       1.0     0.300497     0.872944     0.267138    Uiso  ? H
   H557       1.0     0.337280     0.109621     0.291052    Uiso  ? H
   N15        1.0     0.327841     0.103747     0.691283    Uiso  ? N
   C811       1.0     0.328990     0.126847     0.708054    Uiso  ? C
   C812       1.0     0.307707     0.129308     0.728534    Uiso  ? C
   N16        1.0     0.292284     0.104661     0.727580    Uiso  ? N
   C813       1.0     0.279736     0.101576     0.701097    Uiso  ? C
   C814       1.0     0.301467     0.102211     0.678867    Uiso  ? C
   C815       1.0     0.331680     0.881108     0.708631    Uiso  ? C
   C816       1.0     0.311084     0.882385     0.731651    Uiso  ? C
   H558       1.0     0.342937     0.142435     0.704578    Uiso  ? H
   H559       1.0     0.296579     0.147606     0.724250    Uiso  ? H
   H560       1.0     0.266286     0.117994     0.698235    Uiso  ? H
   H561       1.0     0.300910     0.883531     0.666891    Uiso  ? H
   H562       1.0     0.352171     0.880855     0.716243    Uiso  ? H
   H563       1.0     0.299209     0.864099     0.733217    Uiso  ? H
   H564       1.0     0.316272     0.131325     0.749082    Uiso  ? H
   H565       1.0     0.268664     0.882972     0.700112    Uiso  ? H
   H566       1.0     0.298395     0.120327     0.665604    Uiso  ? H
   H567       1.0     0.329369     0.862278     0.697224    Uiso  ? H
   H568       1.0     0.320562     0.883703     0.751022    Uiso  ? H
   N17        1.0     0.681693     0.319847     0.895221    Uiso  ? N
   C817       1.0     0.688036     0.309932     0.122530    Uiso  ? C
   C818       1.0     0.709431     0.290146     0.124348    Uiso  ? C
   N18        1.0     0.718402     0.284979     0.895736    Uiso  ? N
   C819       1.0     0.696104     0.275204     0.880223    Uiso  ? C
   C820       1.0     0.674057     0.297055     0.879660    Uiso  ? C
   C821       1.0     0.706711     0.331184     0.883786    Uiso  ? C
   C822       1.0     0.729376     0.310131     0.884108    Uiso  ? C
   H569       1.0     0.683465     0.322610     0.139820    Uiso  ? H
   H570       1.0     0.703667     0.271877     0.134727    Uiso  ? H
   H571       1.0     0.688928     0.256478     0.889356    Uiso  ? H
   H572       1.0     0.670182     0.303859     0.859148    Uiso  ? H
   H573       1.0     0.712703     0.348465     0.895797    Uiso  ? H
   H574       1.0     0.735536     0.307235     0.863268    Uiso  ? H
   H575       1.0     0.725824     0.298611     0.135792    Uiso  ? H
   H576       1.0     0.702885     0.268730     0.860197    Uiso  ? H
   H577       1.0     0.654869     0.288545     0.887233    Uiso  ? H
   H578       1.0     0.702757     0.337907     0.863636    Uiso  ? H
   H579       1.0     0.745886     0.316716     0.896256    Uiso  ? H
   N19        1.0     0.717829     0.720896     0.896094    Uiso  ? N
   C823       1.0     0.724438     0.697417     0.880778    Uiso  ? C
   C824       1.0     0.703092     0.677118     0.879573    Uiso  ? C
   N20        1.0     0.680737     0.686167     0.896214    Uiso  ? N
   C825       1.0     0.690364     0.690107     0.125081    Uiso  ? C
   C826       1.0     0.711720     0.712314     0.125212    Uiso  ? C
   C827       1.0     0.693292     0.732417     0.884124    Uiso  ? C
   C828       1.0     0.670682     0.711520     0.885400    Uiso  ? C
   H580       1.0     0.742744     0.695225     0.868629    Uiso  ? H
   H581       1.0     0.710570     0.657959     0.887346    Uiso  ? H
   H582       1.0     0.698992     0.671736     0.132700    Uiso  ? H
   H583       1.0     0.703843     0.729597     0.136309    Uiso  ? H
   H584       1.0     0.696756     0.739032     0.862451    Uiso  ? H
   H585       1.0     0.654177     0.718364     0.897664    Uiso  ? H
   H586       1.0     0.697042     0.674685     0.858891    Uiso  ? H
   H587       1.0     0.673208     0.694899     0.138276    Uiso  ? H
   H588       1.0     0.729986     0.705261     0.134235    Uiso  ? H
   H589       1.0     0.688053     0.750518     0.895043    Uiso  ? H
   H590       1.0     0.662289     0.709266     0.865648    Uiso  ? H
   N21        1.0     0.291245     0.722630     0.102483    Uiso  ? N
   C829       1.0     0.305152     0.722375     0.127520    Uiso  ? C
   C830       1.0     0.326268     0.701591     0.129771    Uiso  ? C
   N22        1.0     0.326290     0.686767     0.104331    Uiso  ? N
   C831       1.0     0.300604     0.675611     0.898418    Uiso  ? C
   C832       1.0     0.279315     0.697360     0.897373    Uiso  ? C
   C833       1.0     0.310875     0.727779     0.880069    Uiso  ? C
   C834       1.0     0.332079     0.706177     0.880924    Uiso  ? C
   H591       1.0     0.303042     0.737776     0.142247    Uiso  ? H
   H592       1.0     0.320862     0.686813     0.144788    Uiso  ? H
   H593       1.0     0.297276     0.660185     0.116177    Uiso  ? H
   H594       1.0     0.269276     0.696440     0.878189    Uiso  ? H
   H595       1.0     0.321008     0.747185     0.882773    Uiso  ? H
   H596       1.0     0.333505     0.695114     0.861183    Uiso  ? H
   H597       1.0     0.346024     0.710720     0.134971    Uiso  ? H
   H598       1.0     0.300233     0.663847     0.879830    Uiso  ? H
   H599       1.0     0.263300     0.692225     0.113448    Uiso  ? H
   H600       1.0     0.299957     0.727937     0.860906    Uiso  ? H
   H601       1.0     0.351916     0.715759     0.882396    Uiso  ? H
   N23        1.0     0.282312     0.280204     0.104833    Uiso  ? N
   C835       1.0     0.270669     0.306247     0.103804    Uiso  ? C
   C836       1.0     0.290484     0.328879     0.103528    Uiso  ? C
   N24        1.0     0.317425     0.317638     0.104484    Uiso  ? N
   C837       1.0     0.320054     0.301167     0.128225    Uiso  ? C
   C838       1.0     0.298893     0.278945     0.128766    Uiso  ? C
   C839       1.0     0.300066     0.278862     0.879733    Uiso  ? C
   C840       1.0     0.321727     0.301076     0.879644    Uiso  ? C
   H602       1.0     0.249410     0.309872     0.897405    Uiso  ? H
   H603       1.0     0.287239     0.341674     0.120765    Uiso  ? H
   H604       1.0     0.318113     0.313911     0.146090    Uiso  ? H
   H605       1.0     0.308534     0.259296     0.130107    Uiso  ? H
   H606       1.0     0.288439     0.280150     0.861131    Uiso  ? H
   H607       1.0     0.342342     0.291911     0.879864    Uiso  ? H
   H608       1.0     0.287344     0.341425     0.883887    Uiso  ? H
   H609       1.0     0.340142     0.292062     0.128825    Uiso  ? H
   H610       1.0     0.286448     0.280281     0.146580    Uiso  ? H
   H611       1.0     0.309213     0.258948     0.879307    Uiso  ? H
   H612       1.0     0.320122     0.311207     0.860426    Uiso  ? H
   N25        1.0     0.279412     0.320633     0.504780    Uiso  ? N
   C841       1.0     0.285426     0.310235     0.479359    Uiso  ? C
   C842       1.0     0.307337     0.290380     0.477696    Uiso  ? C
   N26        1.0     0.315668     0.284950     0.505009    Uiso  ? N
   C843       1.0     0.325765     0.309841     0.517018    Uiso  ? C
   C844       1.0     0.303628     0.331389     0.516751    Uiso  ? C
   C845       1.0     0.270829     0.297111     0.521207    Uiso  ? C
   C846       1.0     0.292435     0.275824     0.520781    Uiso  ? C
   H613       1.0     0.274182     0.315438     0.462053    Uiso  ? H
   H614       1.0     0.323821     0.296769     0.463852    Uiso  ? H
   H615       1.0     0.342897     0.316983     0.505495    Uiso  ? H
   H616       1.0     0.299465     0.338073     0.537020    Uiso  ? H
   H617       1.0     0.251456     0.289099     0.513071    Uiso  ? H
   H618       1.0     0.298245     0.270718     0.541520    Uiso  ? H
   H619       1.0     0.298364     0.271846     0.469634    Uiso  ? H
   H620       1.0     0.332881     0.304635     0.536983    Uiso  ? H
   H621       1.0     0.310038     0.349393     0.506342    Uiso  ? H
   H622       1.0     0.267485     0.303162     0.542401    Uiso  ? H
   H623       1.0     0.284178     0.257538     0.513131    Uiso  ? H
   N27        1.0     0.315124     0.722966     0.504104    Uiso  ? N
   C847       1.0     0.288825     0.733189     0.498896    Uiso  ? C
   C848       1.0     0.267186     0.713930     0.495660    Uiso  ? C
   N28        1.0     0.277821     0.687054     0.500116    Uiso  ? N
   C849       1.0     0.298750     0.682455     0.480621    Uiso  ? C
   C850       1.0     0.320809     0.703866     0.482832    Uiso  ? C
   C851       1.0     0.313049     0.708123     0.529135    Uiso  ? C
   C852       1.0     0.290281     0.686935     0.526797    Uiso  ? C
   H624       1.0     0.284720     0.754417     0.495856    Uiso  ? H
   H625       1.0     0.259164     0.715464     0.474718    Uiso  ? H
   H626       1.0     0.290582     0.683277     0.460212    Uiso  ? H
   H627       1.0     0.340786     0.694549     0.485107    Uiso  ? H
   H628       1.0     0.309547     0.722535     0.544814    Uiso  ? H
   H629       1.0     0.298269     0.667106     0.530832    Uiso  ? H
   H630       1.0     0.250213     0.717234     0.510348    Uiso  ? H
   H631       1.0     0.307467     0.662990     0.482583    Uiso  ? H
   H632       1.0     0.322591     0.713904     0.463742    Uiso  ? H
   H633       1.0     0.332091     0.698470     0.535053    Uiso  ? H
   H634       1.0     0.275155     0.690775     0.541919    Uiso  ? H
   N29        1.0     0.678956     0.716456     0.494226    Uiso  ? N
   C853       1.0     0.679181     0.702381     0.519183    Uiso  ? C
   C854       1.0     0.701125     0.682576     0.522544    Uiso  ? C
   N30        1.0     0.715566     0.680210     0.497215    Uiso  ? N
   C855       1.0     0.696231     0.673413     0.475940    Uiso  ? C
   C856       1.0     0.674275     0.694952     0.474303    Uiso  ? C
   C857       1.0     0.704953     0.728184     0.489138    Uiso  ? C
   C858       1.0     0.727547     0.706491     0.491550    Uiso  ? C
   H635       1.0     0.665059     0.707244     0.535027    Uiso  ? H
   H636       1.0     0.692253     0.662078     0.527336    Uiso  ? H
   H637       1.0     0.687459     0.653553     0.478704    Uiso  ? H
   H638       1.0     0.671735     0.702809     0.453854    Uiso  ? H
   H639       1.0     0.707807     0.744428     0.502953    Uiso  ? H
   H640       1.0     0.737918     0.705083     0.472480    Uiso  ? H
   H641       1.0     0.714299     0.688448     0.540157    Uiso  ? H
   H642       1.0     0.706229     0.674531     0.456424    Uiso  ? H
   H643       1.0     0.655511     0.683832     0.478769    Uiso  ? H
   H644       1.0     0.705099     0.736636     0.468741    Uiso  ? H
   H645       1.0     0.740413     0.711111     0.508181    Uiso  ? H
   N31        1.0     0.683295     0.279805     0.495763    Uiso  ? N
   C859       1.0     0.691044     0.284595     0.523163    Uiso  ? C
   C860       1.0     0.711236     0.306378     0.526068    Uiso  ? C
   N32        1.0     0.718459     0.316406     0.499490    Uiso  ? N
   C861       1.0     0.728289     0.293883     0.483724    Uiso  ? C
   C862       1.0     0.706898     0.272058     0.480896    Uiso  ? C
   C863       1.0     0.672803     0.304051     0.484740    Uiso  ? C
   C864       1.0     0.693833     0.326187     0.486233    Uiso  ? C
   H646       1.0     0.684152     0.271888     0.538786    Uiso  ? H
   H647       1.0     0.728762     0.297417     0.536552    Uiso  ? H
   H648       1.0     0.746943     0.285413     0.492455    Uiso  ? H
   H649       1.0     0.701652     0.268092     0.459961    Uiso  ? H
   H650       1.0     0.655578     0.310319     0.496658    Uiso  ? H
   H651       1.0     0.698393     0.334850     0.466558    Uiso  ? H
   H652       1.0     0.703774     0.322507     0.539645    Uiso  ? H
   H653       1.0     0.732589     0.301587     0.463767    Uiso  ? H
   H654       1.0     0.715056     0.253518     0.488718    Uiso  ? H
   H655       1.0     0.667893     0.300791     0.463838    Uiso  ? H
   H656       1.0     0.686086     0.342612     0.498388    Uiso  ? H
   N33        1.0     0.318263     0.501479     0.282361    Uiso  ? N
   C865       1.0     0.318381     0.526166     0.296519    Uiso  ? C
   C866       1.0     0.298003     0.528894     0.318373    Uiso  ? C
   N34        1.0     0.281871     0.503922     0.318427    Uiso  ? N
   C867       1.0     0.269834     0.499762     0.291926    Uiso  ? C
   C868       1.0     0.292168     0.496800     0.270792    Uiso  ? C
   C869       1.0     0.322492     0.479914     0.301876    Uiso  ? C
   C870       1.0     0.299921     0.481073     0.323335    Uiso  ? C
   H657       1.0     0.336049     0.539272     0.295513    Uiso  ? H
   H658       1.0     0.285710     0.546894     0.314219    Uiso  ? H
   H659       1.0     0.256598     0.515826     0.286581    Uiso  ? H
   H660       1.0     0.291923     0.476746     0.261906    Uiso  ? H
   H661       1.0     0.342330     0.482997     0.311976    Uiso  ? H
   H662       1.0     0.287960     0.462422     0.321931    Uiso  ? H
   H663       1.0     0.308018     0.530773     0.338573    Uiso  ? H
   H664       1.0     0.256379     0.481923     0.292018    Uiso  ? H
   H665       1.0     0.288563     0.511947     0.254842    Uiso  ? H
   H666       1.0     0.323005     0.460694     0.292532    Uiso  ? H
   H667       1.0     0.308341     0.481751     0.343800    Uiso  ? H
   N35        1.0     0.715579     0.499002     0.323305    Uiso  ? N
   C871       1.0     0.703088     0.473586     0.318541    Uiso  ? C
   C872       1.0     0.681828     0.474709     0.297759    Uiso  ? C
   N36        1.0     0.681741     0.501408     0.285275    Uiso  ? N
   C873       1.0     0.675418     0.521100     0.306152    Uiso  ? C
   C874       1.0     0.695113     0.518542     0.329962    Uiso  ? C
   C875       1.0     0.728329     0.507859     0.298138    Uiso  ? C
   C876       1.0     0.709004     0.506296     0.274588    Uiso  ? C
   H668       1.0     0.712488     0.454989     0.324682    Uiso  ? H
   H669       1.0     0.662633     0.469629     0.306836    Uiso  ? H
   H670       1.0     0.655392     0.518353     0.314696    Uiso  ? H
   H671       1.0     0.704742     0.537360     0.333989    Uiso  ? H
   H672       1.0     0.745389     0.495520     0.294169    Uiso  ? H
   H673       1.0     0.709034     0.524910     0.263381    Uiso  ? H
   H674       1.0     0.686617     0.459159     0.282606    Uiso  ? H
   H675       1.0     0.676757     0.541634     0.296620    Uiso  ? H
   H676       1.0     0.684705     0.511771     0.347523    Uiso  ? H
   H677       1.0     0.735795     0.528084     0.299679    Uiso  ? H
   H678       1.0     0.714552     0.490667     0.259824    Uiso  ? H
   N37        1.0     0.317975     0.507489     0.715267    Uiso  ? N
   C877       1.0     0.293825     0.495423     0.725220    Uiso  ? C
   C878       1.0     0.272414     0.491437     0.704582    Uiso  ? C
   N38        1.0     0.281747     0.504426     0.679671    Uiso  ? N
   C879       1.0     0.287934     0.532519     0.685821    Uiso  ? C
   C880       1.0     0.311417     0.534265     0.706401    Uiso  ? C
   C881       1.0     0.328236     0.492616     0.692391    Uiso  ? C
   C882       1.0     0.306695     0.492142     0.670137    Uiso  ? C
   H679       1.0     0.291838     0.487449     0.745442    Uiso  ? H
   H680       1.0     0.252450     0.500963     0.710092    Uiso  ? H
   H681       1.0     0.270152     0.542381     0.693983    Uiso  ? H
   H682       1.0     0.327833     0.543512     0.695247    Uiso  ? H
   H683       1.0     0.334542     0.472049     0.698848    Uiso  ? H
   H684       1.0     0.314609     0.503181     0.652362    Uiso  ? H
   H685       1.0     0.269318     0.469345     0.700266    Uiso  ? H
   H686       1.0     0.294021     0.543398     0.667577    Uiso  ? H
   H687       1.0     0.306111     0.546627     0.722903    Uiso  ? H
   H688       1.0     0.346344     0.501742     0.683619    Uiso  ? H
   H689       1.0     0.303243     0.472213     0.661829    Uiso  ? H
   N39        1.0     0.720940     0.498322     0.686578    Uiso  ? N
   C883       1.0     0.732360     0.496162     0.712553    Uiso  ? C
   C884       1.0     0.712684     0.495917     0.734490    Uiso  ? C
   N40        1.0     0.685782     0.496474     0.722388    Uiso  ? N
   C885       1.0     0.682677     0.520357     0.705980    Uiso  ? C
   C886       1.0     0.704987     0.522222     0.685073    Uiso  ? C
   C887       1.0     0.703475     0.474382     0.683115    Uiso  ? C
   C888       1.0     0.682547     0.473287     0.705014    Uiso  ? C
   H690       1.0     0.753564     0.499316     0.716596    Uiso  ? H
   H691       1.0     0.715799     0.513035     0.747393    Uiso  ? H
   H692       1.0     0.683698     0.537362     0.718860    Uiso  ? H
   H693       1.0     0.697408     0.523462     0.664345    Uiso  ? H
   H694       1.0     0.714748     0.455742     0.683370    Uiso  ? H
   H695       1.0     0.662793     0.472908     0.696090    Uiso  ? H
   H696       1.0     0.715743     0.477972     0.746587    Uiso  ? H
   H697       1.0     0.662884     0.521471     0.696604    Uiso  ? H
   H698       1.0     0.717082     0.540672     0.688508    Uiso  ? H
   H699       1.0     0.692977     0.474652     0.663091    Uiso  ? H
   H700       1.0     0.684301     0.455497     0.717323    Uiso  ? H
   N41        1.0     0.499508     0.317709     0.717912    Uiso  ? N
   C889       1.0     0.525215     0.305319     0.716028    Uiso  ? C
   C890       1.0     0.528033     0.283761     0.696242    Uiso  ? C
   N42        1.0     0.502514     0.280861     0.682493    Uiso  ? N
   C891       1.0     0.481761     0.274188     0.702632    Uiso  ? C
   C892       1.0     0.480876     0.296140     0.723839    Uiso  ? C
   C893       1.0     0.493721     0.328367     0.691297    Uiso  ? C
   C894       1.0     0.494217     0.305657     0.670006    Uiso  ? C
   H701       1.0     0.543043     0.315096     0.720179    Uiso  ? H
   H702       1.0     0.533795     0.264934     0.706691    Uiso  ? H
   H703       1.0     0.486652     0.255069     0.712646    Uiso  ? H
   H704       1.0     0.460832     0.304186     0.725275    Uiso  ? H
   H705       1.0     0.509818     0.342567     0.685503    Uiso  ? H
   H706       1.0     0.473813     0.303458     0.660468    Uiso  ? H
   H707       1.0     0.543228     0.290418     0.681869    Uiso  ? H
   H708       1.0     0.462428     0.269417     0.693766    Uiso  ? H
   H709       1.0     0.486087     0.288226     0.743840    Uiso  ? H
   H710       1.0     0.473916     0.339270     0.690327    Uiso  ? H
   H711       1.0     0.507839     0.311790     0.653516    Uiso  ? H
   N43        1.0     0.496715     0.322051     0.282432    Uiso  ? N
   C895       1.0     0.522234     0.315278     0.292666    Uiso  ? C
   C896       1.0     0.522469     0.295763     0.315178    Uiso  ? C
   N44        1.0     0.495135     0.287664     0.319918    Uiso  ? N
   C897       1.0     0.480424     0.311423     0.327613    Uiso  ? C
   C898       1.0     0.480582     0.331494     0.305136    Uiso  ? C
   C899       1.0     0.484039     0.297852     0.272796    Uiso  ? C
   C900       1.0     0.482662     0.276798     0.295589    Uiso  ? C
   H712       1.0     0.541095     0.322215     0.284207    Uiso  ? H
   H713       1.0     0.530805     0.304793     0.333667    Uiso  ? H
   H714       1.0     0.489593     0.320188     0.345876    Uiso  ? H
   H715       1.0     0.461135     0.337275     0.298738    Uiso  ? H
   H716       1.0     0.494096     0.290050     0.255257    Uiso  ? H
   H717       1.0     0.461903     0.271150     0.299902    Uiso  ? H
   H718       1.0     0.534439     0.278406     0.308242    Uiso  ? H
   H719       1.0     0.459578     0.306298     0.331933    Uiso  ? H
   H720       1.0     0.489172     0.349841     0.313991    Uiso  ? H
   H721       1.0     0.463276     0.302480     0.266689    Uiso  ? H
   H722       1.0     0.492668     0.257743     0.289986    Uiso  ? H
   N45        1.0     0.499751     0.675481     0.715692    Uiso  ? N
   C901       1.0     0.510567     0.699813     0.726486    Uiso  ? C
   C902       1.0     0.511796     0.723049     0.707641    Uiso  ? C
   N46        1.0     0.501270     0.713661     0.682065    Uiso  ? N
   C903       1.0     0.516194     0.690897     0.671871    Uiso  ? C
   C904       1.0     0.515434     0.667847     0.692302    Uiso  ? C
   C905       1.0     0.472508     0.682248     0.707527    Uiso  ? C
   C906       1.0     0.473414     0.705278     0.686615    Uiso  ? C
   H723       1.0     0.521259     0.701156     0.744600    Uiso  ? H
   H724       1.0     0.532784     0.728611     0.705063    Uiso  ? H
   H725       1.0     0.537056     0.696785     0.669281    Uiso  ? H
   H726       1.0     0.506492     0.649650     0.683720    Uiso  ? H
   H727       1.0     0.460109     0.689690     0.724183    Uiso  ? H
   H728       1.0     0.464876     0.699309     0.667468    Uiso  ? H
   H729       1.0     0.500061     0.739328     0.715739    Uiso  ? H
   H730       1.0     0.508708     0.684559     0.652208    Uiso  ? H
   H731       1.0     0.535924     0.662366     0.698992    Uiso  ? H
   H732       1.0     0.463854     0.664359     0.698401    Uiso  ? H
   H733       1.0     0.461073     0.721435     0.694565    Uiso  ? H
   N47        1.0     0.493853     0.717821     0.318921    Uiso  ? N
   C907       1.0     0.512118     0.697162     0.323493    Uiso  ? C
   C908       1.0     0.513638     0.676775     0.302538    Uiso  ? C
   N48        1.0     0.494768     0.683376     0.281138    Uiso  ? N
   C909       1.0     0.467739     0.685165     0.292198    Uiso  ? C
   C910       1.0     0.467848     0.705492     0.315833    Uiso  ? C
   C911       1.0     0.502141     0.730626     0.294023    Uiso  ? C
   C912       1.0     0.503403     0.709069     0.270561    Uiso  ? C
   H734       1.0     0.518705     0.692317     0.343806    Uiso  ? H
   H735       1.0     0.508436     0.657681     0.310431    Uiso  ? H
   H736       1.0     0.460427     0.665076     0.299349    Uiso  ? H
   H737       1.0     0.452207     0.720665     0.312420    Uiso  ? H
   H738       1.0     0.521926     0.740116     0.296560    Uiso  ? H
   H739       1.0     0.490296     0.713748     0.253507    Uiso  ? H
   H740       1.0     0.533937     0.674829     0.295742    Uiso  ? H
   H741       1.0     0.453773     0.692928     0.277569    Uiso  ? H
   H742       1.0     0.462187     0.696491     0.334522    Uiso  ? H
   H743       1.0     0.487167     0.745868     0.289663    Uiso  ? H
   H744       1.0     0.523354     0.708366     0.261259    Uiso  ? H
